45,58
 OpenBabel05122313053D

 70 75  0  0  1  0  0  0  0  0999 V2000
    0.1309    3.7836   -1.6392 N   0  0  0  0  0  0  0  0  0  0  0  0
   -0.5591    4.3075   -2.8177 C   0  0  0  0  0  0  0  0  0  0  0  0
   -1.2342    5.1321   -2.5237 H   0  0  0  0  0  0  0  0  0  0  0  0
    0.2138    4.6588   -3.5210 H   0  0  0  0  0  0  0  0  0  0  0  0
   -1.1628    3.5004   -3.2780 H   0  0  0  0  0  0  0  0  0  0  0  0
    1.5287    3.6800   -1.6773 C   0  0  0  0  0  0  0  0  0  0  0  0
    2.1966    4.0683   -2.6238 O   0  0  0  0  0  0  0  0  0  0  0  0
    2.1479    3.1197   -0.5374 N   0  0  0  0  0  0  0  0  0  0  0  0
    3.6073    3.0598   -0.5915 C   0  0  0  0  0  0  0  0  0  0  0  0
    3.9611    2.7183    0.3958 H   0  0  0  0  0  0  0  0  0  0  0  0
    3.9340    2.3578   -1.3839 H   0  0  0  0  0  0  0  0  0  0  0  0
    4.0177    4.0570   -0.8352 H   0  0  0  0  0  0  0  0  0  0  0  0
    1.5001    2.6052    0.5990 C   0  0  0  0  0  0  0  0  0  0  0  0
    2.1225    2.1424    1.5531 O   0  0  0  0  0  0  0  0  0  0  0  0
    0.0269    2.6564    0.5092 C   0  0  0  0  0  0  0  0  0  0  0  0
   -0.7104    2.0754    1.4588 N   0  0  0  0  0  0  0  0  0  0  0  0
   -2.0394    2.0909    1.3698 C   0  0  0  0  0  0  0  0  0  0  0  0
   -2.6799    2.8292    0.3211 C   0  0  0  0  0  0  0  0  0  0  0  0
   -4.1680    2.9915    0.1741 C   0  0  0  0  0  0  0  0  0  0  0  0
   -4.6769    3.2252    1.1287 H   0  0  0  0  0  0  0  0  0  0  0  0
   -4.3611    3.8023   -0.5515 H   0  0  0  0  0  0  0  0  0  0  0  0
   -4.6118    2.0575   -0.2305 H   0  0  0  0  0  0  0  0  0  0  0  0
   -1.9435    3.4168   -0.6300 N   0  0  0  0  0  0  0  0  0  0  0  0
   -0.6097    3.2827   -0.5904 C   0  0  0  0  0  0  0  0  0  0  0  0
   -2.7789    1.3218    2.4906 C   0  0  2  0  0  0  0  0  0  0  0  0
   -3.1476    2.3092    3.6147 C   0  0  0  0  0  0  0  0  0  0  0  0
   -2.2384    2.8286    3.9708 H   0  0  0  0  0  0  0  0  0  0  0  0
   -3.8579    3.0810    3.2549 H   0  0  0  0  0  0  0  0  0  0  0  0
   -3.6096    1.7725    4.4681 H   0  0  0  0  0  0  0  0  0  0  0  0
    4.4408   -0.3171    1.7094 N   0  0  0  0  0  0  0  0  0  0  0  0
    5.2551   -0.0226    2.8880 C   0  0  0  0  0  0  0  0  0  0  0  0
    6.2967    0.0981    2.5478 H   0  0  0  0  0  0  0  0  0  0  0  0
    4.8927    0.9061    3.3698 H   0  0  0  0  0  0  0  0  0  0  0  0
    5.1725   -0.8489    3.6187 H   0  0  0  0  0  0  0  0  0  0  0  0
    5.0647   -0.3152    0.4453 C   0  0  0  0  0  0  0  0  0  0  0  0
    6.2585   -0.0883    0.3166 O   0  0  0  0  0  0  0  0  0  0  0  0
    4.2333   -0.5954   -0.6636 N   0  0  0  0  0  0  0  0  0  0  0  0
    4.8468   -0.6341   -1.9921 C   0  0  0  0  0  0  0  0  0  0  0  0
    5.9249   -0.4389   -1.8757 H   0  0  0  0  0  0  0  0  0  0  0  0
    4.6700   -1.6250   -2.4522 H   0  0  0  0  0  0  0  0  0  0  0  0
    4.3755    0.1283   -2.6429 H   0  0  0  0  0  0  0  0  0  0  0  0
    2.8532   -0.8062   -0.6164 C   0  0  0  0  0  0  0  0  0  0  0  0
    2.1774   -1.0087   -1.6231 O   0  0  0  0  0  0  0  0  0  0  0  0
    2.2811   -0.7284    0.7313 C   0  0  2  0  0  3  0  0  0  0  0  0
    0.9574   -0.7770    0.8555 N   0  0  0  0  0  2  0  0  0  0  0  0
    0.3740   -0.6314    2.0584 C   0  0  0  0  0  0  0  0  0  0  0  0
    1.2224   -0.6039    3.2195 C   0  0  0  0  0  0  0  0  0  0  0  0
    0.7146   -0.7194    4.6306 C   0  0  0  0  0  0  0  0  0  0  0  0
   -0.2182   -1.3082    4.7004 H   0  0  0  0  0  0  0  0  0  0  0  0
    1.5010   -1.1945    5.2459 H   0  0  0  0  0  0  0  0  0  0  0  0
    0.5254    0.2842    5.0667 H   0  0  0  0  0  0  0  0  0  0  0  0
    2.5539   -0.5428    3.0950 N   0  0  0  0  0  0  0  0  0  0  0  0
    3.0873   -0.5212    1.8660 C   0  0  0  0  0  0  0  0  0  0  0  0
   -1.1084   -0.5518    2.0278 C   0  0  1  0  0  3  0  0  0  0  0  0
   -1.8315    0.2276    3.0906 C   0  0  0  0  0  0  0  0  0  0  0  0
   -1.0976    0.7278    3.7404 H   0  0  0  0  0  0  0  0  0  0  0  0
   -2.4670   -0.4300    3.7180 H   0  0  0  0  0  0  0  0  0  0  0  0
   -1.6788   -1.0920    0.9832 N   0  0  0  0  0  2  0  0  0  0  0  0
   -3.0364   -1.1753    0.6703 C   0  0  0  0  0  0  0  0  0  0  0  0
   -3.9948    0.6938    2.0340 N   0  0  0  0  0  0  0  0  0  0  0  0
   -4.8691    1.1470    2.2946 H   0  0  0  0  0  0  0  0  0  0  0  0
   -4.1205   -0.3702    1.1699 C   0  0  0  0  0  0  0  0  0  0  0  0
   -5.4374   -0.6660    0.7201 C   0  0  0  0  0  0  0  0  0  0  0  0
   -6.2642   -0.0463    1.1044 H   0  0  0  0  0  0  0  0  0  0  0  0
   -5.7019   -1.6932   -0.1799 C   0  0  0  0  0  0  0  0  0  0  0  0
   -6.7391   -1.8827   -0.4952 H   0  0  0  0  0  0  0  0  0  0  0  0
   -4.6439   -2.4716   -0.6893 C   0  0  0  0  0  0  0  0  0  0  0  0
   -4.8312   -3.2821   -1.4073 H   0  0  0  0  0  0  0  0  0  0  0  0
   -3.3480   -2.1956   -0.2745 C   0  0  0  0  0  0  0  0  0  0  0  0
   -2.5070   -2.8007   -0.6483 H   0  0  0  0  0  0  0  0  0  0  0  0
  1 24  1  0  0  0  0
  2  3  1  0  0  0  0
  2  1  1  0  0  0  0
  4  2  1  0  0  0  0
  5  2  1  0  0  0  0
  6  1  1  0  0  0  0
  6  8  1  0  0  0  0
  7  6  2  0  0  0  0
  8 13  1  0  0  0  0
  9  8  1  0  0  0  0
  9 10  1  0  0  0  0
 11  9  1  0  0  0  0
 12  9  1  0  0  0  0
 13 14  2  0  0  0  0
 15 13  1  0  0  0  0
 15 16  1  0  0  0  0
 17 16  2  0  0  0  0
 17 25  1  0  0  0  0
 18 17  1  0  0  0  0
 19 18  1  0  0  0  0
 19 20  1  0  0  0  0
 21 19  1  0  0  0  0
 22 19  1  0  0  0  0
 23 24  1  0  0  0  0
 23 18  2  0  0  0  0
 24 15  2  0  0  0  0
 25 55  1  0  0  0  0
 25 26  1  1  0  0  0
 26 27  1  0  0  0  0
 26 29  1  0  0  0  0
 28 26  1  0  0  0  0
 30 53  1  0  0  0  0
 30 31  1  0  0  0  0
 31 33  1  0  0  0  0
 31 34  1  0  0  0  0
 32 31  1  0  0  0  0
 35 30  1  0  0  0  0
 36 35  2  0  0  0  0
 37 42  1  0  0  0  0
 37 35  1  0  0  0  0
 38 39  1  0  0  0  0
 38 37  1  0  0  0  0
 40 38  1  0  0  0  0
 41 38  1  0  0  0  0
 43 42  2  0  0  0  0
 44 42  1  6  0  0  0
 44 45  1  0  0  0  0
 44 53  1  0  0  0  0
 45 46  1  0  0  0  0
 46 47  2  0  0  0  0
 47 48  1  0  0  0  0
 48 49  1  0  0  0  0
 48 51  1  0  0  0  0
 48 50  1  0  0  0  0
 52 47  1  0  0  0  0
 53 52  2  0  0  0  0
 54 46  1  6  0  0  0
 54 55  1  0  0  0  0
 55 57  1  0  0  0  0
 55 56  1  0  0  0  0
 58 54  1  0  0  0  0
 59 58  1  0  0  0  0
 59 62  1  0  0  0  0
 60 61  1  0  0  0  0
 60 25  1  0  0  0  0
 62 60  1  0  0  0  0
 63 64  1  0  0  0  0
 63 62  2  0  0  0  0
 65 63  1  0  0  0  0
 66 65  1  0  0  0  0
 67 69  1  0  0  0  0
 67 65  2  0  0  0  0
 68 67  1  0  0  0  0
 69 59  2  0  0  0  0
 70 69  1  0  0  0  0
M  END
