1,2
 OpenBabel05122313053D

 44 48  0  0  1  0  0  0  0  0999 V2000
   -1.3476    0.4207    0.0485 N   0  0  0  0  0  2  0  0  0  0  0  0
    0.8880   -0.9686   -0.0228 N   0  0  0  0  0  2  0  0  0  0  0  0
    0.9352    0.3695   -0.3696 N   0  0  0  0  0  0  0  0  0  0  0  0
   -0.2544    1.1043   -0.3197 C   0  0  0  0  0  0  0  0  0  0  0  0
   -0.2572    2.4855   -0.6334 C   0  0  0  0  0  0  0  0  0  0  0  0
    0.6625    2.9652   -0.9876 H   0  0  0  0  0  0  0  0  0  0  0  0
   -1.4297    3.2163   -0.5181 C   0  0  0  0  0  0  0  0  0  0  0  0
   -2.5898    2.5453   -0.0018 C   0  0  0  0  0  0  0  0  0  0  0  0
   -2.5065    1.1359    0.2993 C   0  0  0  0  0  0  0  0  0  0  0  0
   -3.6172    0.4904    0.9046 C   0  0  0  0  0  0  0  0  0  0  0  0
   -3.5353   -0.5787    1.1398 H   0  0  0  0  0  0  0  0  0  0  0  0
   -4.7849    1.1987    1.1567 C   0  0  0  0  0  0  0  0  0  0  0  0
   -5.6331    0.6824    1.6308 H   0  0  0  0  0  0  0  0  0  0  0  0
   -4.8945    2.5681    0.8148 C   0  0  0  0  0  0  0  0  0  0  0  0
   -5.8301    3.1125    1.0119 H   0  0  0  0  0  0  0  0  0  0  0  0
   -3.8119    3.2294    0.2516 C   0  0  0  0  0  3  0  0  0  0  0  0
   -3.8876    4.2994    0.0136 H   0  0  0  0  0  0  0  0  0  0  0  0
   -1.4668    4.6701   -0.8930 C   0  0  0  0  0  0  0  0  0  0  0  0
   -1.7365    5.3038   -0.0226 H   0  0  0  0  0  0  0  0  0  0  0  0
   -2.2308    4.8610   -1.6746 H   0  0  0  0  0  0  0  0  0  0  0  0
   -0.4883    5.0135   -1.2772 H   0  0  0  0  0  0  0  0  0  0  0  0
    2.2371    0.7460   -0.5868 C   0  0  2  0  0  3  0  0  0  0  0  0
    3.0285   -0.3669   -0.3587 C   0  0  0  0  0  0  0  0  0  0  0  0
    2.1574   -1.4344    0.0005 C   0  0  0  0  0  0  0  0  0  0  0  0
    3.0178    1.9967   -0.8767 C   0  0  0  0  0  0  0  0  0  0  0  0
    2.8020    2.8132   -0.1524 H   0  0  0  0  0  0  0  0  0  0  0  0
    2.8133    2.4008   -1.8917 H   0  0  0  0  0  0  0  0  0  0  0  0
    4.4702    1.4882   -0.7567 C   0  0  2  0  0  0  0  0  0  0  0  0
    5.2019    1.8978   -1.4697 H   0  0  0  0  0  0  0  0  0  0  0  0
    4.4679   -0.0218   -0.4393 C   0  0  1  0  0  0  0  0  0  0  0  0
    5.1836   -0.7120   -0.9130 H   0  0  0  0  0  0  0  0  0  0  0  0
    5.0025    0.9941    0.5779 C   0  0  0  0  0  0  0  0  0  0  0  0
    6.5145    1.0277    0.7247 C   0  0  0  0  0  0  0  0  0  0  0  0
    6.8550    0.2744    1.4651 H   0  0  0  0  0  0  0  0  0  0  0  0
    6.8551    2.0245    1.0750 H   0  0  0  0  0  0  0  0  0  0  0  0
    7.0258    0.8142   -0.2354 H   0  0  0  0  0  0  0  0  0  0  0  0
    4.2623    1.2761    1.8707 C   0  0  0  0  0  0  0  0  0  0  0  0
    3.1657    1.1619    1.7767 H   0  0  0  0  0  0  0  0  0  0  0  0
    4.4705    2.3095    2.2192 H   0  0  0  0  0  0  0  0  0  0  0  0
    4.5979    0.5808    2.6674 H   0  0  0  0  0  0  0  0  0  0  0  0
    2.5236   -2.8314    0.3573 C   0  0  0  0  0  0  0  0  0  0  0  0
    1.9026   -3.2087    1.1904 H   0  0  0  0  0  0  0  0  0  0  0  0
    3.5974   -2.8770    0.6215 H   0  0  0  0  0  0  0  0  0  0  0  0
    2.3218   -3.5183   -0.4892 H   0  0  0  0  0  0  0  0  0  0  0  0
  1  9  1  0  0  0  0
  2 24  1  0  0  0  0
  3  4  1  0  0  0  0
  3  2  1  0  0  0  0
  4  1  1  0  0  0  0
  5  7  1  0  0  0  0
  5  4  2  0  0  0  0
  6  5  1  0  0  0  0
  7  8  2  0  0  0  0
  8 16  1  0  0  0  0
  8  9  1  0  0  0  0
  9 10  2  0  0  0  0
 10 11  1  0  0  0  0
 10 12  1  0  0  0  0
 12 13  1  0  0  0  0
 14 15  1  0  0  0  0
 14 12  2  0  0  0  0
 16 14  1  0  0  0  0
 17 16  1  0  0  0  0
 18  7  1  0  0  0  0
 18 19  1  0  0  0  0
 20 18  1  0  0  0  0
 21 18  1  0  0  0  0
 22  3  1  0  0  0  0
 22 23  1  1  0  0  0
 23 24  2  0  0  0  0
 24 41  1  0  0  0  0
 25 28  1  0  0  0  0
 25 22  1  0  0  0  0
 25 26  1  0  0  0  0
 27 25  1  0  0  0  0
 28 29  1  6  0  0  0
 28 30  1  0  0  0  0
 28 32  1  0  0  0  0
 30 31  1  6  0  0  0
 30 23  1  0  0  0  0
 30 32  1  0  0  0  0
 32 33  1  0  0  0  0
 32 37  1  0  0  0  0
 33 35  1  0  0  0  0
 33 34  1  0  0  0  0
 36 33  1  0  0  0  0
 37 39  1  0  0  0  0
 37 40  1  0  0  0  0
 38 37  1  0  0  0  0
 41 43  1  0  0  0  0
 41 42  1  0  0  0  0
 44 41  1  0  0  0  0
M  END
