1,2
 OpenBabel05122313053D

 33 35  0  0  1  0  0  0  0  0999 V2000
   -1.3226    1.5075   -0.0738 N   0  0  0  0  0  2  0  0  0  0  0  0
   -1.4346   -1.2105    0.7283 N   0  0  0  0  0  2  0  0  0  0  0  0
    0.4432    0.2175    0.8394 N   0  0  0  0  0  0  0  0  0  0  0  0
    7.0063   -0.0464   -1.1327 N   0  0  0  0  0  0  0  0  0  0  0  0
   -2.1607   -2.2617    1.1534 C   0  0  0  0  0  3  0  0  0  0  0  0
   -1.6686   -3.1653    2.0982 C   0  0  0  0  0  0  0  0  0  0  0  0
   -0.3807   -2.9455    2.6205 C   0  0  0  0  0  0  0  0  0  0  0  0
    0.3544   -1.8305    2.2075 C   0  0  0  0  0  0  0  0  0  0  0  0
   -0.2167   -0.9704    1.2472 C   0  0  0  0  0  0  0  0  0  0  0  0
   -0.3241    1.4223    0.8251 C   0  0  2  0  0  3  0  0  0  0  0  0
   -0.0903    2.4453    1.7605 C   0  0  0  0  0  0  0  0  0  0  0  0
   -0.8932    3.5935    1.7140 C   0  0  0  0  0  0  0  0  0  0  0  0
   -1.9312    3.6680    0.7734 C   0  0  0  0  0  0  0  0  0  0  0  0
   -2.1304    2.5835   -0.0887 C   0  0  0  0  0  0  0  0  0  0  0  0
    1.7972    0.1931    0.4217 C   0  0  0  0  0  0  0  0  0  0  0  0
    2.3423   -1.0119   -0.0817 C   0  0  0  0  0  0  0  0  0  0  0  0
    3.6762   -1.0760   -0.4780 C   0  0  0  0  0  0  0  0  0  0  0  0
    4.5036    0.0707   -0.4138 C   0  0  0  0  0  0  0  0  0  0  0  0
    3.9438    1.2863    0.0384 C   0  0  0  0  0  0  0  0  0  0  0  0
    2.6108    1.3473    0.4511 C   0  0  0  0  0  0  0  0  0  0  0  0
    5.8771    0.0061   -0.8128 C   0  0  0  0  0  0  0  0  0  0  0  0
   -3.1570   -2.3594    0.6900 H   0  0  0  0  0  0  0  0  0  0  0  0
   -2.2770   -4.0236    2.4154 H   0  0  0  0  0  0  0  0  0  0  0  0
    0.0414   -3.6313    3.3705 H   0  0  0  0  0  0  0  0  0  0  0  0
    1.3481   -1.6097    2.6208 H   0  0  0  0  0  0  0  0  0  0  0  0
    0.6927    2.3228    2.5211 H   0  0  0  0  0  0  0  0  0  0  0  0
   -0.7260    4.4117    2.4305 H   0  0  0  0  0  0  0  0  0  0  0  0
   -2.5953    4.5423    0.7216 H   0  0  0  0  0  0  0  0  0  0  0  0
   -2.9704    2.5283   -0.8019 H   0  0  0  0  0  0  0  0  0  0  0  0
    1.6915   -1.8850   -0.2185 H   0  0  0  0  0  0  0  0  0  0  0  0
    4.0823   -2.0168   -0.8752 H   0  0  0  0  0  0  0  0  0  0  0  0
    4.5666    2.1914    0.0705 H   0  0  0  0  0  0  0  0  0  0  0  0
    2.2072    2.3103    0.7875 H   0  0  0  0  0  0  0  0  0  0  0  0
  1 10  1  0  0  0  0
  2  5  1  0  0  0  0
  2  9  1  0  0  0  0
  3  9  1  0  0  0  0
  4 21  3  0  0  0  0
  5  6  1  0  0  0  0
  6 23  1  0  0  0  0
  6  7  2  0  0  0  0
  7 24  1  0  0  0  0
  8  7  1  0  0  0  0
  8 25  1  0  0  0  0
  9  8  2  0  0  0  0
 10  3  1  1  0  0  0
 10 11  1  0  0  0  0
 11 26  1  0  0  0  0
 12 11  2  0  0  0  0
 12 27  1  0  0  0  0
 13 12  1  0  0  0  0
 14  1  1  0  0  0  0
 14 13  2  0  0  0  0
 15 20  1  0  0  0  0
 15  3  1  0  0  0  0
 16 15  2  0  0  0  0
 17 18  2  0  0  0  0
 17 16  1  0  0  0  0
 18 19  1  0  0  0  0
 19 32  1  0  0  0  0
 19 20  2  0  0  0  0
 20 33  1  0  0  0  0
 21 18  1  0  0  0  0
 22  5  1  0  0  0  0
 28 13  1  0  0  0  0
 29 14  1  0  0  0  0
 30 16  1  0  0  0  0
 31 17  1  0  0  0  0
M  END
