1,2
 OpenBabel05122313053D

 32 34  0  0  1  0  0  0  0  0999 V2000
   -0.9364    1.3918   -0.5658 N   0  0  0  0  0  2  0  0  0  0  0  0
   -0.9367   -1.3904   -0.5690 N   0  0  0  0  0  2  0  0  0  0  0  0
    1.0017    0.0003   -0.4785 N   0  0  0  0  0  0  0  0  0  0  0  0
   -1.5412    2.5641   -0.8438 C   0  0  0  0  0  3  0  0  0  0  0  0
   -0.8278    3.7064   -1.2045 C   0  0  0  0  0  0  0  0  0  0  0  0
    0.5739    3.6072   -1.2584 C   0  0  0  0  0  0  0  0  0  0  0  0
    1.2004    2.3875   -0.9999 C   0  0  0  0  0  0  0  0  0  0  0  0
    0.4011    1.2618   -0.6757 C   0  0  0  0  0  0  0  0  0  0  0  0
    0.4011   -1.2610   -0.6766 C   0  0  2  0  0  3  0  0  0  0  0  0
    1.2005   -2.3870   -0.9995 C   0  0  0  0  0  0  0  0  0  0  0  0
    0.5739   -3.6064   -1.2591 C   0  0  0  0  0  0  0  0  0  0  0  0
   -0.8280   -3.7051   -1.2076 C   0  0  0  0  0  0  0  0  0  0  0  0
   -1.5414   -2.5625   -0.8480 C   0  0  0  0  0  0  0  0  0  0  0  0
    2.3765    0.0003   -0.0262 C   0  0  0  0  0  0  0  0  0  0  0  0
    2.6038    0.0002    1.3598 C   0  0  0  0  0  0  0  0  0  0  0  0
    3.9245    0.0002    1.8336 C   0  0  0  0  0  0  0  0  0  0  0  0
    5.0016    0.0002    0.9322 C   0  0  0  0  0  0  0  0  0  0  0  0
    4.7633    0.0002   -0.4524 C   0  0  0  0  0  0  0  0  0  0  0  0
    3.4466    0.0002   -0.9381 C   0  0  0  0  0  0  0  0  0  0  0  0
   -2.6402    2.5495   -0.7430 H   0  0  0  0  0  0  0  0  0  0  0  0
   -1.3506    4.6493   -1.4155 H   0  0  0  0  0  0  0  0  0  0  0  0
    1.1865    4.4843   -1.5164 H   0  0  0  0  0  0  0  0  0  0  0  0
    2.2913    2.2964   -1.0591 H   0  0  0  0  0  0  0  0  0  0  0  0
    2.2916   -2.2964   -1.0567 H   0  0  0  0  0  0  0  0  0  0  0  0
    1.1866   -4.4837   -1.5161 H   0  0  0  0  0  0  0  0  0  0  0  0
   -1.3507   -4.6477   -1.4196 H   0  0  0  0  0  0  0  0  0  0  0  0
   -2.6406   -2.5476   -0.7487 H   0  0  0  0  0  0  0  0  0  0  0  0
    1.7286    0.0001    2.0327 H   0  0  0  0  0  0  0  0  0  0  0  0
    4.1117    0.0002    2.9180 H   0  0  0  0  0  0  0  0  0  0  0  0
    6.0353    0.0002    1.3096 H   0  0  0  0  0  0  0  0  0  0  0  0
    5.6067    0.0001   -1.1591 H   0  0  0  0  0  0  0  0  0  0  0  0
    3.2423    0.0001   -2.0195 H   0  0  0  0  0  0  0  0  0  0  0  0
  3 14  1  0  0  0  0
  4 20  1  0  0  0  0
  4  1  1  0  0  0  0
  5  4  1  0  0  0  0
  6  5  2  0  0  0  0
  6  7  1  0  0  0  0
  7  8  2  0  0  0  0
  8  1  1  0  0  0  0
  8  3  1  0  0  0  0
  9  2  1  0  0  0  0
  9  3  1  6  0  0  0
 10  9  1  0  0  0  0
 11 12  1  0  0  0  0
 11 10  2  0  0  0  0
 12 13  2  0  0  0  0
 13 27  1  0  0  0  0
 13  2  1  0  0  0  0
 14 15  1  0  0  0  0
 15 16  2  0  0  0  0
 15 28  1  0  0  0  0
 16 29  1  0  0  0  0
 17 30  1  0  0  0  0
 17 16  1  0  0  0  0
 18 17  2  0  0  0  0
 19 18  1  0  0  0  0
 19 14  2  0  0  0  0
 21  5  1  0  0  0  0
 22  6  1  0  0  0  0
 23  7  1  0  0  0  0
 24 10  1  0  0  0  0
 25 11  1  0  0  0  0
 26 12  1  0  0  0  0
 31 18  1  0  0  0  0
 32 19  1  0  0  0  0
M  END
