1,2
 OpenBabel05122313053D

 26 27  0  0  0  0  0  0  0  0999 V2000
    2.2349    1.2374   -0.2014 N   0  0  0  0  0  2  0  0  0  0  0  0
   -0.2774    1.4896    0.2391 N   0  0  0  0  0  2  0  0  0  0  0  0
   -1.6337    1.6118    0.3909 N   0  0  0  0  0  0  0  0  0  0  0  0
   -4.5556    1.7804    0.4449 C   0  0  0  0  0  0  0  0  0  0  0  0
    3.5193    1.0413   -0.5691 C   0  0  0  0  0  3  0  0  0  0  0  0
    4.4311    2.0934   -0.6953 C   0  0  0  0  0  0  0  0  0  0  0  0
    5.4663    1.8730   -0.9910 H   0  0  0  0  0  0  0  0  0  0  0  0
    4.0054    3.4112   -0.4510 C   0  0  0  0  0  0  0  0  0  0  0  0
    4.7050    4.2542   -0.5435 H   0  0  0  0  0  0  0  0  0  0  0  0
    2.6697    3.6292   -0.1102 C   0  0  0  0  0  0  0  0  0  0  0  0
    1.7984    2.5266   -0.0019 C   0  0  0  0  0  0  0  0  0  0  0  0
    0.3940    2.6256    0.2615 C   0  0  0  0  0  3  0  0  0  0  0  0
   -0.1341    3.5788    0.4133 H   0  0  0  0  0  0  0  0  0  0  0  0
   -2.3570    0.8091   -0.3239 C   0  0  0  0  0  0  0  0  0  0  0  0
   -1.8928    0.1069   -1.0439 H   0  0  0  0  0  0  0  0  0  0  0  0
   -3.8175    0.7841   -0.2294 C   0  0  0  0  0  0  0  0  0  0  0  0
   -4.3892   -0.2881   -0.8273 N   0  0  0  0  0  0  0  0  0  0  0  0
   -5.7214   -0.3970   -0.7705 C   0  0  0  0  0  0  0  0  0  0  0  0
   -6.1636   -1.2815   -1.2604 H   0  0  0  0  0  0  0  0  0  0  0  0
   -6.5466    0.5491   -0.1321 C   0  0  0  0  0  0  0  0  0  0  0  0
   -7.6383    0.4149   -0.1269 H   0  0  0  0  0  0  0  0  0  0  0  0
   -5.9489    1.6569    0.4884 C   0  0  0  0  0  0  0  0  0  0  0  0
   -6.5632    2.4157    0.9956 H   0  0  0  0  0  0  0  0  0  0  0  0
   -4.0291    2.6269    0.9083 H   0  0  0  0  0  0  0  0  0  0  0  0
    3.8129    0.0051   -0.7763 H   0  0  0  0  0  0  0  0  0  0  0  0
    2.2770    4.6420    0.0578 H   0  0  0  0  0  0  0  0  0  0  0  0
  1 11  1  0  0  0  0
  2 12  1  0  0  0  0
  2  3  1  0  0  0  0
  4 22  1  0  0  0  0
  4 24  1  0  0  0  0
  5  1  1  0  0  0  0
  6  5  1  0  0  0  0
  6  8  2  0  0  0  0
  7  6  1  0  0  0  0
  8 10  1  0  0  0  0
  9  8  1  0  0  0  0
 10 11  2  0  0  0  0
 10 26  1  0  0  0  0
 11 12  1  0  0  0  0
 12 13  1  0  0  0  0
 14 16  1  0  0  0  0
 14  3  2  0  0  0  0
 15 14  1  0  0  0  0
 16  4  2  0  0  0  0
 17 18  2  0  0  0  0
 17 16  1  0  0  0  0
 18 20  1  0  0  0  0
 19 18  1  0  0  0  0
 20 21  1  0  0  0  0
 20 22  2  0  0  0  0
 22 23  1  0  0  0  0
 25  5  1  0  0  0  0
M  END
