1,2
 OpenBabel05122313053D

 33 34  0  0  0  0  0  0  0  0999 V2000
   -2.1604   -0.1460   -0.0206 N   0  0  0  0  0  2  0  0  0  0  0  0
    0.4669   -0.4935   -0.1918 N   0  0  0  0  0  2  0  0  0  0  0  0
   -1.7231   -1.4041   -0.2504 C   0  0  0  0  0  0  0  0  0  0  0  0
   -2.6310   -2.4621   -0.4396 C   0  0  0  0  0  0  0  0  0  0  0  0
   -2.2719   -3.4839   -0.6213 H   0  0  0  0  0  0  0  0  0  0  0  0
   -4.0063   -2.1889   -0.3980 C   0  0  0  0  0  0  0  0  0  0  0  0
   -4.7350   -3.0003   -0.5425 H   0  0  0  0  0  0  0  0  0  0  0  0
   -4.4378   -0.8741   -0.1779 C   0  0  0  0  0  0  0  0  0  0  0  0
   -5.5066   -0.6194   -0.1461 H   0  0  0  0  0  0  0  0  0  0  0  0
   -3.4689    0.1253    0.0049 C   0  0  0  0  0  0  0  0  0  0  0  0
   -3.7408    1.1806    0.1709 H   0  0  0  0  0  0  0  0  0  0  0  0
   -0.2395   -1.5744   -0.3041 C   0  0  0  0  0  0  0  0  0  0  0  0
    0.3363   -2.9438   -0.5125 C   0  0  0  0  0  0  0  0  0  0  0  0
    1.4384   -2.8975   -0.5765 H   0  0  0  0  0  0  0  0  0  0  0  0
   -0.0590   -3.3925   -1.4467 H   0  0  0  0  0  0  0  0  0  0  0  0
    0.0541   -3.6205    0.3202 H   0  0  0  0  0  0  0  0  0  0  0  0
    1.8892   -0.4881   -0.1926 C   0  0  0  0  0  0  0  0  0  0  0  0
    2.5937   -0.8711    0.9771 C   0  0  0  0  0  0  0  0  0  0  0  0
    3.9976   -0.7708    0.9481 C   0  0  0  0  0  0  0  0  0  0  0  0
    4.5640   -1.0503    1.8499 H   0  0  0  0  0  0  0  0  0  0  0  0
    4.6716   -0.3125   -0.1914 C   0  0  0  0  0  0  0  0  0  0  0  0
    5.7695   -0.2397   -0.1884 H   0  0  0  0  0  0  0  0  0  0  0  0
    3.9472    0.0654   -1.3302 C   0  0  0  0  0  0  0  0  0  0  0  0
    4.4732    0.4318   -2.2253 H   0  0  0  0  0  0  0  0  0  0  0  0
    2.5427   -0.0032   -1.3534 C   0  0  0  0  0  0  0  0  0  0  0  0
    1.8594   -1.3205    2.2131 C   0  0  0  0  0  0  0  0  0  0  0  0
    1.0645   -0.5909    2.4826 H   0  0  0  0  0  0  0  0  0  0  0  0
    2.5544   -1.4130    3.0688 H   0  0  0  0  0  0  0  0  0  0  0  0
    1.3751   -2.3112    2.0749 H   0  0  0  0  0  0  0  0  0  0  0  0
    1.7417    0.4036   -2.5613 C   0  0  0  0  0  0  0  0  0  0  0  0
    0.9652    1.1572   -2.3009 H   0  0  0  0  0  0  0  0  0  0  0  0
    1.2036   -0.4626   -3.0036 H   0  0  0  0  0  0  0  0  0  0  0  0
    2.3948    0.8302   -3.3456 H   0  0  0  0  0  0  0  0  0  0  0  0
  1 10  1  0  0  0  0
  3  1  1  0  0  0  0
  4  6  2  0  0  0  0
  4  3  1  0  0  0  0
  5  4  1  0  0  0  0
  6  8  1  0  0  0  0
  7  6  1  0  0  0  0
  8  9  1  0  0  0  0
  8 10  2  0  0  0  0
 10 11  1  0  0  0  0
 12  3  2  0  0  0  0
 12  2  1  0  0  0  0
 13 12  1  0  0  0  0
 13 16  1  0  0  0  0
 14 13  1  0  0  0  0
 15 13  1  0  0  0  0
 17  2  1  0  0  0  0
 17 18  1  0  0  0  0
 18 26  1  0  0  0  0
 19 18  2  0  0  0  0
 19 20  1  0  0  0  0
 21 22  1  0  0  0  0
 21 19  1  0  0  0  0
 23 21  2  0  0  0  0
 24 23  1  0  0  0  0
 25 23  1  0  0  0  0
 25 17  2  0  0  0  0
 26 27  1  0  0  0  0
 26 28  1  0  0  0  0
 29 26  1  0  0  0  0
 30 31  1  0  0  0  0
 30 25  1  0  0  0  0
 32 30  1  0  0  0  0
 33 30  1  0  0  0  0
M  END
