1,2
 OpenBabel05122313053D

 27 28  0  0  0  0  0  0  0  0999 V2000
   -1.9946    0.1460   -0.0114 N   0  0  0  0  0  2  0  0  0  0  0  0
    0.6235    0.5967   -0.0056 N   0  0  0  0  0  2  0  0  0  0  0  0
   -1.5925    1.4267   -0.1662 C   0  0  0  0  0  0  0  0  0  0  0  0
   -2.5315    2.4750   -0.2089 C   0  0  0  0  0  0  0  0  0  0  0  0
   -2.2059    3.5166   -0.3315 H   0  0  0  0  0  0  0  0  0  0  0  0
   -3.8935    2.1691   -0.0711 C   0  0  0  0  0  0  0  0  0  0  0  0
   -4.6443    2.9729   -0.0985 H   0  0  0  0  0  0  0  0  0  0  0  0
   -4.2840    0.8361    0.1154 C   0  0  0  0  0  0  0  0  0  0  0  0
   -5.3405    0.5603    0.2416 H   0  0  0  0  0  0  0  0  0  0  0  0
   -3.2881   -0.1529    0.1431 C   0  0  0  0  0  0  0  0  0  0  0  0
   -3.5157   -1.2182    0.3128 H   0  0  0  0  0  0  0  0  0  0  0  0
   -0.1161    1.6420   -0.2298 C   0  0  0  0  0  0  0  0  0  0  0  0
    0.3975    3.0141   -0.5655 C   0  0  0  0  0  0  0  0  0  0  0  0
    1.4749    2.9867   -0.8078 H   0  0  0  0  0  0  0  0  0  0  0  0
    0.2550    3.7194    0.2797 H   0  0  0  0  0  0  0  0  0  0  0  0
   -0.1580    3.4264   -1.4313 H   0  0  0  0  0  0  0  0  0  0  0  0
    2.0317    0.6203    0.0804 C   0  0  0  0  0  0  0  0  0  0  0  0
    2.7640   -0.3319   -0.6635 C   0  0  0  0  0  0  0  0  0  0  0  0
    2.2107   -1.0296   -1.3146 H   0  0  0  0  0  0  0  0  0  0  0  0
    4.1599   -0.3571   -0.5638 C   0  0  0  0  0  0  0  0  0  0  0  0
    4.7271   -1.0910   -1.1560 H   0  0  0  0  0  0  0  0  0  0  0  0
    4.8343    0.5314    0.2908 C   0  0  0  0  0  0  0  0  0  0  0  0
    5.9308    0.4948    0.3739 H   0  0  0  0  0  0  0  0  0  0  0  0
    4.1018    1.4548    1.0538 C   0  0  0  0  0  0  0  0  0  0  0  0
    4.6198    2.1359    1.7458 H   0  0  0  0  0  0  0  0  0  0  0  0
    2.7057    1.5086    0.9487 C   0  0  0  0  0  0  0  0  0  0  0  0
    2.1274    2.2049    1.5733 H   0  0  0  0  0  0  0  0  0  0  0  0
  1 10  1  0  0  0  0
  2 17  1  0  0  0  0
  3  1  1  0  0  0  0
  4  3  1  0  0  0  0
  4  6  2  0  0  0  0
  5  4  1  0  0  0  0
  6  8  1  0  0  0  0
  7  6  1  0  0  0  0
  8 10  2  0  0  0  0
  8  9  1  0  0  0  0
 10 11  1  0  0  0  0
 12  3  2  0  0  0  0
 12  2  1  0  0  0  0
 13 12  1  0  0  0  0
 13 15  1  0  0  0  0
 14 13  1  0  0  0  0
 16 13  1  0  0  0  0
 17 26  1  0  0  0  0
 18 20  1  0  0  0  0
 18 17  2  0  0  0  0
 19 18  1  0  0  0  0
 20 22  2  0  0  0  0
 21 20  1  0  0  0  0
 22 23  1  0  0  0  0
 22 24  1  0  0  0  0
 24 25  1  0  0  0  0
 26 24  2  0  0  0  0
 26 27  1  0  0  0  0
M  END
