1,2
 OpenBabel05122313053D

 31 32  0  0  0  0  0  0  0  0999 V2000
   -2.1658    0.0664   -0.2040 N   0  0  0  0  0  2  0  0  0  0  0  0
    0.2759    0.9814    0.1893 N   0  0  0  0  0  2  0  0  0  0  0  0
    1.7247   -1.0312    0.9979 O   0  0  0  0  0  0  0  0  0  0  0  0
   -2.0507    1.3764    0.1155 C   0  0  0  0  0  0  0  0  0  0  0  0
   -3.1985    2.1867    0.2354 C   0  0  0  0  0  0  0  0  0  0  0  0
   -3.1102    3.2533    0.4809 H   0  0  0  0  0  0  0  0  0  0  0  0
   -4.4610    1.6109    0.0373 C   0  0  0  0  0  0  0  0  0  0  0  0
   -5.3675    2.2288    0.1228 H   0  0  0  0  0  0  0  0  0  0  0  0
   -4.5554    0.2431   -0.2546 C   0  0  0  0  0  0  0  0  0  0  0  0
   -5.5281   -0.2477   -0.3992 H   0  0  0  0  0  0  0  0  0  0  0  0
   -3.3684   -0.4985   -0.3579 C   0  0  0  0  0  0  0  0  0  0  0  0
   -3.3601   -1.5856   -0.5422 H   0  0  0  0  0  0  0  0  0  0  0  0
   -0.6616    1.8748    0.3256 C   0  0  0  0  0  0  0  0  0  0  0  0
   -0.4535    3.3118    0.7163 C   0  0  0  0  0  0  0  0  0  0  0  0
    0.5330    3.4499    1.1952 H   0  0  0  0  0  0  0  0  0  0  0  0
   -1.2367    3.6390    1.4271 H   0  0  0  0  0  0  0  0  0  0  0  0
   -0.5060    3.9903   -0.1618 H   0  0  0  0  0  0  0  0  0  0  0  0
    1.6525    1.1715    0.1772 C   0  0  0  0  0  0  0  0  0  0  0  0
    2.4327    0.0262    0.5428 C   0  0  0  0  0  0  0  0  0  0  0  0
    3.8320    0.0584    0.4323 C   0  0  0  0  0  0  0  0  0  0  0  0
    4.4245   -0.8258    0.7002 H   0  0  0  0  0  0  0  0  0  0  0  0
    4.4672    1.2188   -0.0313 C   0  0  0  0  0  0  0  0  0  0  0  0
    5.5642    1.2349   -0.1148 H   0  0  0  0  0  0  0  0  0  0  0  0
    3.7170    2.3442   -0.4109 C   0  0  0  0  0  0  0  0  0  0  0  0
    4.2193    3.2367   -0.8110 H   0  0  0  0  0  0  0  0  0  0  0  0
    2.3221    2.3182   -0.3097 C   0  0  0  0  0  0  0  0  0  0  0  0
    1.7378    3.1698   -0.6805 H   0  0  0  0  0  0  0  0  0  0  0  0
    2.3235   -2.3345    1.0053 C   0  0  0  0  0  0  0  0  0  0  0  0
    1.4970   -3.0167    1.2791 H   0  0  0  0  0  0  0  0  0  0  0  0
    3.1405   -2.3876    1.7541 H   0  0  0  0  0  0  0  0  0  0  0  0
    2.6894   -2.5794   -0.0130 H   0  0  0  0  0  0  0  0  0  0  0  0
  1  4  1  0  0  0  0
  2 13  1  0  0  0  0
  3 28  1  0  0  0  0
  4  5  1  0  0  0  0
  4 13  2  0  0  0  0
  5  6  1  0  0  0  0
  7  8  1  0  0  0  0
  7  5  2  0  0  0  0
  9  7  1  0  0  0  0
 10  9  1  0  0  0  0
 11  9  2  0  0  0  0
 11  1  1  0  0  0  0
 12 11  1  0  0  0  0
 13 14  1  0  0  0  0
 14 15  1  0  0  0  0
 14 16  1  0  0  0  0
 17 14  1  0  0  0  0
 18  2  1  0  0  0  0
 18 19  1  0  0  0  0
 19  3  1  0  0  0  0
 20 19  2  0  0  0  0
 20 21  1  0  0  0  0
 22 20  1  0  0  0  0
 23 22  1  0  0  0  0
 24 26  1  0  0  0  0
 24 22  2  0  0  0  0
 25 24  1  0  0  0  0
 26 18  2  0  0  0  0
 27 26  1  0  0  0  0
 28 29  1  0  0  0  0
 28 30  1  0  0  0  0
 31 28  1  0  0  0  0
M  END
