1,2
 OpenBabel05122313053D

 33 34  0  0  0  0  0  0  0  0999 V2000
   -2.0373    0.8572   -0.2082 N   0  0  0  0  0  2  0  0  0  0  0  0
    0.4442    0.3606   -0.7259 N   0  0  0  0  0  2  0  0  0  0  0  0
   -3.3168    1.1121    0.1304 C   0  0  0  0  0  3  0  0  0  0  0  0
   -3.6563    0.7125    1.0968 H   0  0  0  0  0  0  0  0  0  0  0  0
   -4.1869    1.8296   -0.6985 C   0  0  0  0  0  0  0  0  0  0  0  0
   -5.2219    2.0019   -0.3712 H   0  0  0  0  0  0  0  0  0  0  0  0
   -3.7227    2.3092   -1.9348 C   0  0  0  0  0  0  0  0  0  0  0  0
   -4.3875    2.8721   -2.6059 H   0  0  0  0  0  0  0  0  0  0  0  0
   -2.3970    2.0520   -2.2940 C   0  0  0  0  0  0  0  0  0  0  0  0
   -1.9820    2.4009   -3.2506 H   0  0  0  0  0  0  0  0  0  0  0  0
   -1.5785    1.3234   -1.4114 C   0  0  0  0  0  0  0  0  0  0  0  0
   -0.1922    1.0007   -1.6672 C   0  0  0  0  0  3  0  0  0  0  0  0
    0.3004    1.2812   -2.6154 H   0  0  0  0  0  0  0  0  0  0  0  0
    1.7817   -0.0831   -0.9785 C   0  0  0  0  0  0  0  0  0  0  0  0
    1.9466   -1.1812   -1.8474 C   0  0  0  0  0  0  0  0  0  0  0  0
    1.0482   -1.6454   -2.2794 H   0  0  0  0  0  0  0  0  0  0  0  0
    3.2263   -1.6954   -2.0849 C   0  0  0  0  0  0  0  0  0  0  0  0
    3.3499   -2.5606   -2.7532 H   0  0  0  0  0  0  0  0  0  0  0  0
    4.3382   -1.1110   -1.4599 C   0  0  0  0  0  0  0  0  0  0  0  0
    5.3482   -1.5093   -1.6388 H   0  0  0  0  0  0  0  0  0  0  0  0
    4.1608   -0.0167   -0.6030 C   0  0  0  0  0  0  0  0  0  0  0  0
    5.0405    0.4406   -0.1242 H   0  0  0  0  0  0  0  0  0  0  0  0
    2.8869    0.5231   -0.3358 C   0  0  0  0  0  0  0  0  0  0  0  0
    2.7300    1.7303    0.5760 C   0  0  0  0  0  0  0  0  0  0  0  0
    1.6480    1.9591    0.6360 H   0  0  0  0  0  0  0  0  0  0  0  0
    3.4212    2.9711   -0.0157 C   0  0  0  0  0  0  0  0  0  0  0  0
    4.5174    2.8215   -0.1022 H   0  0  0  0  0  0  0  0  0  0  0  0
    3.2535    3.8564    0.6311 H   0  0  0  0  0  0  0  0  0  0  0  0
    3.0355    3.2056   -1.0285 H   0  0  0  0  0  0  0  0  0  0  0  0
    3.2214    1.4356    2.0024 C   0  0  0  0  0  0  0  0  0  0  0  0
    2.7286    0.5375    2.4224 H   0  0  0  0  0  0  0  0  0  0  0  0
    3.0017    2.2906    2.6728 H   0  0  0  0  0  0  0  0  0  0  0  0
    4.3168    1.2589    2.0233 H   0  0  0  0  0  0  0  0  0  0  0  0
  1  3  1  0  0  0  0
  3  4  1  0  0  0  0
  5  6  1  0  0  0  0
  5  3  1  0  0  0  0
  7  5  2  0  0  0  0
  8  7  1  0  0  0  0
  9  7  1  0  0  0  0
  9 11  2  0  0  0  0
 10  9  1  0  0  0  0
 11  1  1  0  0  0  0
 12 11  1  0  0  0  0
 12  2  1  0  0  0  0
 13 12  1  0  0  0  0
 14  2  1  0  0  0  0
 14 23  1  0  0  0  0
 15 14  2  0  0  0  0
 16 15  1  0  0  0  0
 17 15  1  0  0  0  0
 17 19  2  0  0  0  0
 18 17  1  0  0  0  0
 19 21  1  0  0  0  0
 20 19  1  0  0  0  0
 21 23  2  0  0  0  0
 21 22  1  0  0  0  0
 23 24  1  0  0  0  0
 24 25  1  0  0  0  0
 24 30  1  0  0  0  0
 26 24  1  0  0  0  0
 26 28  1  0  0  0  0
 27 26  1  0  0  0  0
 29 26  1  0  0  0  0
 30 33  1  0  0  0  0
 30 31  1  0  0  0  0
 30 32  1  0  0  0  0
M  END
