1,18
 OpenBabel05122313053D

 31 32  0  0  1  0  0  0  0  0999 V2000
    0.4346    1.4524   -0.3051 N   0  0  0  0  0  2  0  0  0  0  0  0
    1.6601    1.1963    0.2246 N   0  0  0  0  0  0  0  0  0  0  0  0
    0.5460    2.6287   -0.9600 C   0  0  1  0  0  3  0  0  0  0  0  0
    1.8687    3.1206   -0.8265 C   0  0  0  0  0  0  0  0  0  0  0  0
    2.2663    4.0539   -1.2377 H   0  0  0  0  0  0  0  0  0  0  0  0
    2.5657    2.1818   -0.0685 C   0  0  0  0  0  0  0  0  0  0  0  0
    1.8535   -0.0000    1.0133 C   0  0  0  0  0  0  0  0  0  0  0  0
    2.8798   -0.0000    1.4139 H   0  0  0  0  0  0  0  0  0  0  0  0
    1.1007   -0.0000    1.8398 H   0  0  0  0  0  0  0  0  0  0  0  0
    3.9834    2.1582    0.3991 C   0  0  0  0  0  0  0  0  0  0  0  0
    4.5149    3.0464    0.0122 H   0  0  0  0  0  0  0  0  0  0  0  0
    4.5295    1.2607    0.0391 H   0  0  0  0  0  0  0  0  0  0  0  0
    4.0615    2.1794    1.5065 H   0  0  0  0  0  0  0  0  0  0  0  0
   -0.5820    3.2633   -1.7063 C   0  0  0  0  0  0  0  0  0  0  0  0
   -0.9738    2.5928   -2.4964 H   0  0  0  0  0  0  0  0  0  0  0  0
   -0.2358    4.1972   -2.1863 H   0  0  0  0  0  0  0  0  0  0  0  0
   -1.4278    3.5119   -1.0365 H   0  0  0  0  0  0  0  0  0  0  0  0
    0.4346   -1.4524   -0.3051 N   0  0  0  0  0  2  0  0  0  0  0  0
    1.6601   -1.1963    0.2246 N   0  0  0  0  0  0  0  0  0  0  0  0
    0.5460   -2.6287   -0.9600 C   0  0  2  0  0  3  0  0  0  0  0  0
    1.8687   -3.1206   -0.8266 C   0  0  0  0  0  0  0  0  0  0  0  0
    2.2663   -4.0539   -1.2378 H   0  0  0  0  0  0  0  0  0  0  0  0
    2.5657   -2.1818   -0.0685 C   0  0  0  0  0  0  0  0  0  0  0  0
    3.9834   -2.1582    0.3991 C   0  0  0  0  0  0  0  0  0  0  0  0
    4.5149   -3.0465    0.0121 H   0  0  0  0  0  0  0  0  0  0  0  0
    4.5295   -1.2607    0.0391 H   0  0  0  0  0  0  0  0  0  0  0  0
    4.0614   -2.1795    1.5064 H   0  0  0  0  0  0  0  0  0  0  0  0
   -0.5821   -3.2633   -1.7064 C   0  0  0  0  0  0  0  0  0  0  0  0
   -0.9739   -2.5928   -2.4964 H   0  0  0  0  0  0  0  0  0  0  0  0
   -0.2359   -4.1972   -2.1863 H   0  0  0  0  0  0  0  0  0  0  0  0
   -1.4278   -3.5119   -1.0365 H   0  0  0  0  0  0  0  0  0  0  0  0
  1  2  1  0  0  0  0
  2  7  1  0  0  0  0
  3 14  1  6  0  0  0
  3  4  1  0  0  0  0
  3  1  1  0  0  0  0
  4  6  2  0  0  0  0
  5  4  1  0  0  0  0
  6  2  1  0  0  0  0
  6 10  1  0  0  0  0
  7  8  1  0  0  0  0
  7  9  1  0  0  0  0
 10 13  1  0  0  0  0
 11 10  1  0  0  0  0
 12 10  1  0  0  0  0
 14 17  1  0  0  0  0
 15 14  1  0  0  0  0
 16 14  1  0  0  0  0
 18 19  1  0  0  0  0
 19  7  1  0  0  0  0
 20 28  1  6  0  0  0
 20 21  1  0  0  0  0
 20 18  1  0  0  0  0
 21 23  2  0  0  0  0
 22 21  1  0  0  0  0
 23 19  1  0  0  0  0
 23 24  1  0  0  0  0
 24 27  1  0  0  0  0
 25 24  1  0  0  0  0
 26 24  1  0  0  0  0
 28 31  1  0  0  0  0
 29 28  1  0  0  0  0
 30 28  1  0  0  0  0
M  END
