4,16
 OpenBabel05122313053D

 21 23  0  0  1  0  0  0  0  0999 V2000
   -1.0847   -0.8172    3.1369 N   0  0  0  0  0  0  0  0  0  0  0  0
   -1.8370   -0.8540    3.8247 H   0  0  0  0  0  0  0  0  0  0  0  0
   -1.2172   -0.9833    1.7900 C   0  0  2  0  0  3  0  0  0  0  0  0
   -0.0312   -0.8921    1.1605 N   0  0  0  0  0  2  0  0  0  0  0  0
    2.3244   -0.4896    2.0832 C   0  0  0  0  0  0  0  0  0  0  0  0
    2.8678   -0.5431    1.1338 H   0  0  0  0  0  0  0  0  0  0  0  0
    3.0046   -0.2697    3.2839 C   0  0  0  0  0  0  0  0  0  0  0  0
    4.0966   -0.1413    3.2643 H   0  0  0  0  0  0  0  0  0  0  0  0
    2.3291   -0.2160    4.5278 C   0  0  0  0  0  0  0  0  0  0  0  0
    2.9065   -0.0426    5.4474 H   0  0  0  0  0  0  0  0  0  0  0  0
    0.9438   -0.3863    4.6128 C   0  0  0  0  0  0  0  0  0  0  0  0
    0.4181   -0.3526    5.5776 H   0  0  0  0  0  0  0  0  0  0  0  0
    0.9260   -0.6558    2.1421 C   0  0  0  0  0  0  0  0  0  0  0  0
    0.2611   -0.6056    3.4075 C   0  0  0  0  0  0  0  0  0  0  0  0
   -2.3726   -1.2285    0.9638 C   0  0  0  0  0  0  0  0  0  0  0  0
   -2.0120   -1.3225   -0.3818 N   0  0  0  0  0  2  0  0  0  0  0  0
   -3.0525   -1.5502   -1.1644 C   0  0  0  0  0  3  0  0  0  0  0  0
   -2.9492   -1.6537   -2.2547 H   0  0  0  0  0  0  0  0  0  0  0  0
   -4.5440   -1.6655   -0.3051 S   0  0  0  0  0  0  0  0  0  0  0  0
   -3.7240   -1.3912    1.1957 C   0  0  0  0  0  0  0  0  0  0  0  0
   -4.2730   -1.3691    2.1439 H   0  0  0  0  0  0  0  0  0  0  0  0
  1 14  1  0  0  0  0
  1  2  1  0  0  0  0
  3 15  1  6  0  0  0
  3  1  1  0  0  0  0
  4  3  1  0  0  0  0
  4 13  1  0  0  0  0
  5 13  2  0  0  0  0
  5  7  1  0  0  0  0
  6  5  1  0  0  0  0
  7  9  2  0  0  0  0
  8  7  1  0  0  0  0
  9 11  1  0  0  0  0
  9 10  1  0  0  0  0
 11 12  1  0  0  0  0
 13 14  1  0  0  0  0
 14 11  2  0  0  0  0
 15 20  2  0  0  0  0
 16 15  1  0  0  0  0
 17 16  1  0  0  0  0
 17 19  1  0  0  0  0
 18 17  1  0  0  0  0
 19 20  1  0  0  0  0
 20 21  1  0  0  0  0
M  END
