3,4
 OpenBabel05122313053D

 25 26  0  0  0  0  0  0  0  0999 V2000
    2.7257   -1.4125    1.4858 O   0  0  0  0  0  0  0  0  0  0  0  0
    0.8168   -0.4340    2.1624 O   0  0  0  0  0  0  0  0  0  0  0  0
    0.9039    1.1416   -0.3380 N   0  0  0  0  0  2  0  0  0  0  0  0
   -0.4460   -1.3944   -0.3280 N   0  0  0  0  0  2  0  0  0  0  0  0
    1.1627    2.2593   -1.0552 C   0  0  0  0  0  3  0  0  0  0  0  0
    2.4728    2.6673   -1.3237 C   0  0  0  0  0  0  0  0  0  0  0  0
    3.5395    1.9090   -0.8217 C   0  0  0  0  0  0  0  0  0  0  0  0
    3.2603    0.7660   -0.0613 C   0  0  0  0  0  0  0  0  0  0  0  0
    1.9249    0.4091    0.1631 C   0  0  0  0  0  0  0  0  0  0  0  0
   -1.2223   -2.2422   -1.0416 C   0  0  0  0  0  3  0  0  0  0  0  0
   -0.8076   -3.5471   -1.3249 C   0  0  0  0  0  0  0  0  0  0  0  0
    0.4352   -3.9864   -0.8479 C   0  0  0  0  0  0  0  0  0  0  0  0
    1.2204   -3.1057   -0.0920 C   0  0  0  0  0  0  0  0  0  0  0  0
    0.7453   -1.8124    0.1578 C   0  0  0  0  0  0  0  0  0  0  0  0
    1.5484   -0.8124    1.0236 C   0  0  0  0  0  0  0  0  0  0  0  0
    0.2773    2.8304   -1.3719 H   0  0  0  0  0  0  0  0  0  0  0  0
    2.6419    3.5766   -1.9173 H   0  0  0  0  0  0  0  0  0  0  0  0
    4.5808    2.2088   -1.0130 H   0  0  0  0  0  0  0  0  0  0  0  0
    4.0475    0.1417    0.3796 H   0  0  0  0  0  0  0  0  0  0  0  0
   -2.2008   -1.8404   -1.3450 H   0  0  0  0  0  0  0  0  0  0  0  0
   -1.4628   -4.2038   -1.9144 H   0  0  0  0  0  0  0  0  0  0  0  0
    0.7885   -5.0072   -1.0573 H   0  0  0  0  0  0  0  0  0  0  0  0
    2.1969   -3.3893    0.3212 H   0  0  0  0  0  0  0  0  0  0  0  0
    2.5398   -1.6270    2.4217 H   0  0  0  0  0  0  0  0  0  0  0  0
   -0.0423   -0.0252    1.8605 H   0  0  0  0  0  0  0  0  0  0  0  0
  1 24  1  0  0  0  0
  3  9  1  0  0  0  0
  4 14  1  0  0  0  0
  5  3  1  0  0  0  0
  6  5  1  0  0  0  0
  6  7  2  0  0  0  0
  7  8  1  0  0  0  0
  8  9  2  0  0  0  0
  8 19  1  0  0  0  0
  9 15  1  0  0  0  0
 10  4  1  0  0  0  0
 11 10  1  0  0  0  0
 11 12  2  0  0  0  0
 12 13  1  0  0  0  0
 13 14  2  0  0  0  0
 13 23  1  0  0  0  0
 14 15  1  0  0  0  0
 15  1  1  0  0  0  0
 15  2  1  0  0  0  0
 16  5  1  0  0  0  0
 17  6  1  0  0  0  0
 18  7  1  0  0  0  0
 20 10  1  0  0  0  0
 21 11  1  0  0  0  0
 22 12  1  0  0  0  0
 25  2  1  0  0  0  0
M  END
