1,3
 OpenBabel05122313053D

 43 43  0  0  1  0  0  0  0  0999 V2000
   -1.4801    0.6086   -1.0222 N   0  0  0  0  0  2  0  0  0  0  0  0
    0.4284    1.8850    1.0896 N   0  0  0  0  0  0  0  0  0  0  0  0
   -0.7891   -1.2406    0.9121 N   0  0  0  0  0  0  0  0  0  0  0  0
   -0.0187   -1.8279    1.2687 H   0  0  0  0  0  0  0  0  0  0  0  0
   -1.3132    1.9550   -1.5900 C   0  0  0  0  0  0  0  0  0  0  0  0
   -2.1558    2.1982   -2.2640 H   0  0  0  0  0  0  0  0  0  0  0  0
   -0.3898    1.9385   -2.2007 H   0  0  0  0  0  0  0  0  0  0  0  0
   -1.1968    3.0351   -0.5037 C   0  0  0  0  0  0  0  0  0  0  0  0
   -1.2966    4.0180   -1.0087 H   0  0  0  0  0  0  0  0  0  0  0  0
   -2.0677    2.9698    0.1843 H   0  0  0  0  0  0  0  0  0  0  0  0
    0.1270    3.0688    0.2612 C   0  0  0  0  0  0  0  0  0  0  0  0
    0.9505    3.1544   -0.4756 H   0  0  0  0  0  0  0  0  0  0  0  0
    0.1585    3.9944    0.8894 H   0  0  0  0  0  0  0  0  0  0  0  0
   -0.4588    1.7804    2.2574 C   0  0  0  0  0  0  0  0  0  0  0  0
   -1.4780    2.0957    1.9557 H   0  0  0  0  0  0  0  0  0  0  0  0
   -0.1358    2.4994    3.0507 H   0  0  0  0  0  0  0  0  0  0  0  0
   -0.5541    0.3731    2.8555 C   0  0  0  0  0  0  0  0  0  0  0  0
    0.4562   -0.0609    3.0193 H   0  0  0  0  0  0  0  0  0  0  0  0
   -0.9919    0.4730    3.8699 H   0  0  0  0  0  0  0  0  0  0  0  0
   -1.4414   -0.6136    2.0932 C   0  0  0  0  0  0  0  0  0  0  0  0
   -1.7720   -1.4171    2.7842 H   0  0  0  0  0  0  0  0  0  0  0  0
   -2.3540   -0.0924    1.7434 H   0  0  0  0  0  0  0  0  0  0  0  0
   -1.6673   -2.1595    0.0903 C   0  0  0  0  0  0  0  0  0  0  0  0
   -2.8581   -1.3574   -0.4621 C   0  0  0  0  0  0  0  0  0  0  0  0
   -3.3653   -1.9851   -1.2270 H   0  0  0  0  0  0  0  0  0  0  0  0
   -3.6363   -1.2286    0.3250 H   0  0  0  0  0  0  0  0  0  0  0  0
   -2.6339    0.0064   -1.0681 C   0  0  1  0  0  3  0  0  0  0  0  0
    1.8294    1.9428    1.5186 C   0  0  0  0  0  0  0  0  0  0  0  0
    2.4970    1.9521    0.6364 H   0  0  0  0  0  0  0  0  0  0  0  0
    2.0891    1.0578    2.1297 H   0  0  0  0  0  0  0  0  0  0  0  0
    2.0375    2.8571    2.1251 H   0  0  0  0  0  0  0  0  0  0  0  0
   -0.8143   -2.7277   -1.0549 C   0  0  0  0  0  0  0  0  0  0  0  0
   -1.4005   -3.4809   -1.6168 H   0  0  0  0  0  0  0  0  0  0  0  0
    0.0934   -3.2315   -0.6655 H   0  0  0  0  0  0  0  0  0  0  0  0
   -0.4884   -1.9319   -1.7528 H   0  0  0  0  0  0  0  0  0  0  0  0
   -2.1932   -3.3200    0.9541 C   0  0  0  0  0  0  0  0  0  0  0  0
   -2.7922   -4.0105    0.3297 H   0  0  0  0  0  0  0  0  0  0  0  0
   -2.8435   -2.9784    1.7824 H   0  0  0  0  0  0  0  0  0  0  0  0
   -1.3541   -3.9067    1.3809 H   0  0  0  0  0  0  0  0  0  0  0  0
   -3.8615    0.6209   -1.6976 C   0  0  0  0  0  0  0  0  0  0  0  0
   -4.7462   -0.0232   -1.5440 H   0  0  0  0  0  0  0  0  0  0  0  0
   -3.7267    0.7489   -2.7923 H   0  0  0  0  0  0  0  0  0  0  0  0
   -4.0876    1.6207   -1.2761 H   0  0  0  0  0  0  0  0  0  0  0  0
  2 28  1  0  0  0  0
  2 14  1  0  0  0  0
  3  4  1  0  0  0  0
  3 20  1  0  0  0  0
  5  1  1  0  0  0  0
  5  8  1  0  0  0  0
  6  5  1  0  0  0  0
  7  5  1  0  0  0  0
  8 10  1  0  0  0  0
  8 11  1  0  0  0  0
  9  8  1  0  0  0  0
 11 13  1  0  0  0  0
 11  2  1  0  0  0  0
 12 11  1  0  0  0  0
 14 17  1  0  0  0  0
 14 16  1  0  0  0  0
 15 14  1  0  0  0  0
 17 18  1  0  0  0  0
 17 19  1  0  0  0  0
 20 21  1  0  0  0  0
 20 17  1  0  0  0  0
 22 20  1  0  0  0  0
 23  3  1  0  0  0  0
 23 36  1  0  0  0  0
 24 23  1  0  0  0  0
 24 26  1  0  0  0  0
 25 24  1  0  0  0  0
 27 40  1  1  0  0  0
 27  1  1  0  0  0  0
 27 24  1  0  0  0  0
 28 31  1  0  0  0  0
 28 30  1  0  0  0  0
 29 28  1  0  0  0  0
 32 34  1  0  0  0  0
 32 23  1  0  0  0  0
 33 32  1  0  0  0  0
 35 32  1  0  0  0  0
 36 39  1  0  0  0  0
 36 38  1  0  0  0  0
 37 36  1  0  0  0  0
 40 41  1  0  0  0  0
 40 43  1  0  0  0  0
 42 40  1  0  0  0  0
M  END
