3,4
 OpenBabel05122313053D

 22 24  0  0  1  0  0  0  0  0999 V2000
    5.2277    0.0004    2.4999 O   0  0  0  0  0  0  0  0  0  0  0  0
    5.9535   -0.0010   -0.1765 O   0  0  0  0  0  0  0  0  0  0  0  0
    0.5991    0.0001    1.1766 N   0  0  0  0  0  2  0  0  0  0  0  0
    1.2836   -0.0010   -1.3566 N   0  0  0  0  0  2  0  0  0  0  0  0
    0.1890    0.0007    2.4723 C   0  0  0  0  0  3  0  0  0  0  0  0
    1.0834    0.0011    3.5469 C   0  0  0  0  0  0  0  0  0  0  0  0
    2.4652    0.0009    3.2995 C   0  0  0  0  0  0  0  0  0  0  0  0
    2.9055    0.0003    1.9674 C   0  0  0  0  0  0  0  0  0  0  0  0
    1.9488   -0.0001    0.9304 C   0  0  0  0  0  0  0  0  0  0  0  0
    2.3284   -0.0007   -0.4705 C   0  0  1  0  0  3  0  0  0  0  0  0
    3.6778   -0.0010   -0.8849 C   0  0  0  0  0  0  0  0  0  0  0  0
    3.9601   -0.0016   -2.2612 C   0  0  0  0  0  0  0  0  0  0  0  0
    2.8873   -0.0019   -3.1644 C   0  0  0  0  0  0  0  0  0  0  0  0
    1.5707   -0.0016   -2.6845 C   0  0  0  0  0  0  0  0  0  0  0  0
    4.3676    0.0000    1.6386 C   0  0  0  0  0  0  0  0  0  0  0  0
    4.7751   -0.0007    0.1304 C   0  0  0  0  0  0  0  0  0  0  0  0
   -0.8992    0.0009    2.6307 H   0  0  0  0  0  0  0  0  0  0  0  0
    0.6886    0.0016    4.5727 H   0  0  0  0  0  0  0  0  0  0  0  0
    3.2126    0.0012    4.1067 H   0  0  0  0  0  0  0  0  0  0  0  0
    5.0108   -0.0019   -2.5874 H   0  0  0  0  0  0  0  0  0  0  0  0
    3.0583   -0.0024   -4.2504 H   0  0  0  0  0  0  0  0  0  0  0  0
    0.6858   -0.0017   -3.3430 H   0  0  0  0  0  0  0  0  0  0  0  0
  2 16  2  0  0  0  0
  3  5  1  0  0  0  0
  5 17  1  0  0  0  0
  5  6  1  0  0  0  0
  6 18  1  0  0  0  0
  7  6  2  0  0  0  0
  7 19  1  0  0  0  0
  8  7  1  0  0  0  0
  9  3  1  0  0  0  0
  9  8  2  0  0  0  0
 10  4  1  1  0  0  0
 10  9  1  0  0  0  0
 11 10  1  0  0  0  0
 11 16  1  0  0  0  0
 12 11  2  0  0  0  0
 13 14  2  0  0  0  0
 13 12  1  0  0  0  0
 14  4  1  0  0  0  0
 15  8  1  0  0  0  0
 15  1  2  0  0  0  0
 16 15  1  0  0  0  0
 20 12  1  0  0  0  0
 21 13  1  0  0  0  0
 22 14  1  0  0  0  0
M  END
