2,3
 OpenBabel05122313053D

 34 35  0  0  0  0  0  0  0  0999 V2000
    6.7017   -0.0123    0.0000 Si  0  0  0  0  0  0  0  0  0  0  0  0
   -2.1476   -2.3855   -0.0001 N   0  0  0  0  0  2  0  0  0  0  0  0
    0.4183   -1.7787   -0.0000 N   0  0  0  0  0  2  0  0  0  0  0  0
   -3.4836   -2.5936   -0.0001 C   0  0  0  0  0  0  0  0  0  0  0  0
   -4.0942   -1.6755   -0.0002 H   0  0  0  0  0  0  0  0  0  0  0  0
   -4.0350   -3.8761   -0.0001 C   0  0  0  0  0  0  0  0  0  0  0  0
   -5.1275   -3.9961   -0.0001 H   0  0  0  0  0  0  0  0  0  0  0  0
   -3.1750   -4.9879    0.0000 C   0  0  0  0  0  0  0  0  0  0  0  0
   -3.5773   -6.0114    0.0001 H   0  0  0  0  0  0  0  0  0  0  0  0
   -1.7940   -4.7739    0.0000 C   0  0  0  0  0  0  0  0  0  0  0  0
   -1.1008   -5.6256    0.0001 H   0  0  0  0  0  0  0  0  0  0  0  0
   -1.2913   -3.4586   -0.0000 C   0  0  0  0  0  0  0  0  0  0  0  0
    0.1383   -3.1217   -0.0000 C   0  0  0  0  0  0  0  0  0  0  0  0
    1.1896   -4.0598    0.0000 C   0  0  0  0  0  0  0  0  0  0  0  0
    0.9645   -5.1347    0.0000 H   0  0  0  0  0  0  0  0  0  0  0  0
    2.5163   -3.6298    0.0000 C   0  0  0  0  0  0  0  0  0  0  0  0
    3.3428   -4.3538    0.0001 H   0  0  0  0  0  0  0  0  0  0  0  0
    2.7927   -2.2377    0.0000 C   0  0  0  0  0  0  0  0  0  0  0  0
    1.6918   -1.3538   -0.0000 C   0  0  0  0  0  0  0  0  0  0  0  0
    1.8240   -0.2602   -0.0001 H   0  0  0  0  0  0  0  0  0  0  0  0
    4.0980   -1.6752    0.0000 C   0  0  0  0  0  0  0  0  0  0  0  0
    5.1779   -1.0738    0.0000 C   0  0  0  0  0  0  0  0  0  0  0  0
    6.6381    1.0560   -1.5559 C   0  0  0  0  0  0  0  0  0  0  0  0
    7.5092    1.7430   -1.5865 H   0  0  0  0  0  0  0  0  0  0  0  0
    5.7141    1.6683   -1.5811 H   0  0  0  0  0  0  0  0  0  0  0  0
    6.6598    0.4306   -2.4708 H   0  0  0  0  0  0  0  0  0  0  0  0
    6.6383    1.0558    1.5561 C   0  0  0  0  0  0  0  0  0  0  0  0
    7.5095    1.7426    1.5868 H   0  0  0  0  0  0  0  0  0  0  0  0
    6.6599    0.4302    2.4709 H   0  0  0  0  0  0  0  0  0  0  0  0
    5.7144    1.6682    1.5815 H   0  0  0  0  0  0  0  0  0  0  0  0
    8.2250   -1.1269   -0.0001 C   0  0  0  0  0  0  0  0  0  0  0  0
    9.1503   -0.5143   -0.0005 H   0  0  0  0  0  0  0  0  0  0  0  0
    8.2437   -1.7773   -0.8977 H   0  0  0  0  0  0  0  0  0  0  0  0
    8.2441   -1.7770    0.8976 H   0  0  0  0  0  0  0  0  0  0  0  0
  1 22  1  0  0  0  0
  1 27  1  0  0  0  0
  2 12  1  0  0  0  0
  3 19  1  0  0  0  0
  3 13  1  0  0  0  0
  4  2  1  0  0  0  0
  4  6  2  0  0  0  0
  5  4  1  0  0  0  0
  6  8  1  0  0  0  0
  7  6  1  0  0  0  0
  8 10  2  0  0  0  0
  8  9  1  0  0  0  0
 10 11  1  0  0  0  0
 12 13  2  0  0  0  0
 12 10  1  0  0  0  0
 13 14  1  0  0  0  0
 14 15  1  0  0  0  0
 14 16  2  0  0  0  0
 16 17  1  0  0  0  0
 18 16  1  0  0  0  0
 18 21  1  0  0  0  0
 19 18  2  0  0  0  0
 20 19  1  0  0  0  0
 22 21  3  0  0  0  0
 23  1  1  0  0  0  0
 24 23  1  0  0  0  0
 25 23  1  0  0  0  0
 26 23  1  0  0  0  0
 27 30  1  0  0  0  0
 27 28  1  0  0  0  0
 27 29  1  0  0  0  0
 31  1  1  0  0  0  0
 31 34  1  0  0  0  0
 32 31  1  0  0  0  0
 33 31  1  0  0  0  0
M  END
