2,3
 OpenBabel05122313053D

 23 25  0  0  0  0  0  0  0  0999 V2000
    2.1291    1.4024    2.5591 S   0  0  0  0  0  0  0  0  0  0  0  0
    1.3261    0.3212    0.3275 N   0  0  0  0  0  2  0  0  0  0  0  0
   -0.2544   -1.6026    1.3282 N   0  0  0  0  0  2  0  0  0  0  0  0
    1.1885    0.2499    1.6527 C   0  0  0  0  0  0  0  0  0  0  0  0
    0.3423   -0.7769    2.2431 C   0  0  0  0  0  0  0  0  0  0  0  0
    2.2226    1.3140   -0.0497 C   0  0  0  0  0  0  0  0  0  0  0  0
    2.7682    2.0328    1.0568 C   0  0  0  0  0  0  0  0  0  0  0  0
    0.1652   -0.9523    3.6275 C   0  0  0  0  0  0  0  0  0  0  0  0
    0.6580   -0.2689    4.3343 H   0  0  0  0  0  0  0  0  0  0  0  0
   -1.0159   -2.6247    1.7801 C   0  0  0  0  0  0  0  0  0  0  0  0
   -1.4621   -3.2748    1.0133 H   0  0  0  0  0  0  0  0  0  0  0  0
   -1.2274   -2.8609    3.1426 C   0  0  0  0  0  0  0  0  0  0  0  0
   -1.8514   -3.7103    3.4537 H   0  0  0  0  0  0  0  0  0  0  0  0
    2.6213    1.6478   -1.3619 C   0  0  0  0  0  0  0  0  0  0  0  0
    2.2246    1.0939   -2.2216 H   0  0  0  0  0  0  0  0  0  0  0  0
   -0.6320   -2.0064    4.0841 C   0  0  0  0  0  0  0  0  0  0  0  0
   -0.7814   -2.1647    5.1619 H   0  0  0  0  0  0  0  0  0  0  0  0
    4.0653    3.3937   -0.4298 C   0  0  0  0  0  0  0  0  0  0  0  0
    4.7882    4.2049   -0.5997 H   0  0  0  0  0  0  0  0  0  0  0  0
    3.5384    2.6856   -1.5353 C   0  0  0  0  0  0  0  0  0  0  0  0
    3.8617    2.9528   -2.5517 H   0  0  0  0  0  0  0  0  0  0  0  0
    3.6894    3.0767    0.8798 C   0  0  0  0  0  0  0  0  0  0  0  0
    4.1056    3.6225    1.7381 H   0  0  0  0  0  0  0  0  0  0  0  0
  2  4  1  0  0  0  0
  3 10  1  0  0  0  0
  3  5  1  0  0  0  0
  4  5  2  0  0  0  0
  4  1  1  0  0  0  0
  5  8  1  0  0  0  0
  6  2  1  0  0  0  0
  6  7  1  0  0  0  0
  7  1  1  0  0  0  0
  8 16  2  0  0  0  0
  8  9  1  0  0  0  0
 10 12  2  0  0  0  0
 11 10  1  0  0  0  0
 12 13  1  0  0  0  0
 12 16  1  0  0  0  0
 14  6  2  0  0  0  0
 15 14  1  0  0  0  0
 16 17  1  0  0  0  0
 18 22  1  0  0  0  0
 19 18  1  0  0  0  0
 20 14  1  0  0  0  0
 20 18  2  0  0  0  0
 21 20  1  0  0  0  0
 22  7  2  0  0  0  0
 22 23  1  0  0  0  0
M  END
