7,11
 OpenBabel05122313053D

 60 60  0  0  0  0  0  0  0  0999 V2000
   -1.2931    1.6135    1.5892 P   0  0  0  0  0  4  0  0  0  0  0  0
    0.0165    2.4007   -0.9936 P   0  0  0  0  0  4  0  0  0  0  0  0
    2.6446    1.7817    0.0681 P   0  0  0  0  0  4  0  0  0  0  0  0
    3.2413   -1.1264   -0.5169 P   0  0  0  0  0  4  0  0  0  0  0  0
    0.6608   -2.4328   -0.3123 P   0  0  0  0  0  4  0  0  0  0  0  0
   -0.5791   -1.1163    2.0746 P   0  0  0  0  0  4  0  0  0  0  0  0
   -0.9614    1.4553   -0.0282 N   0  0  0  0  0  2  0  0  0  0  0  0
    1.4613    2.8174   -0.3730 N   0  0  0  0  0  2  0  0  0  0  0  0
    2.6909    0.3806   -0.7535 N   0  0  0  0  0  2  0  0  0  0  0  0
    2.2347   -2.2753    0.0704 N   0  0  0  0  0  2  0  0  0  0  0  0
   -0.3575   -1.3468    0.4431 N   0  0  0  0  0  2  0  0  0  0  0  0
   -0.6395    0.4480    2.5280 N   0  0  0  0  0  2  0  0  0  0  0  0
   -3.1043    1.6974    1.7904 C   0  0  0  0  0  0  0  0  0  0  0  0
   -0.6645    3.2010    2.2338 C   0  0  0  0  0  0  0  0  0  0  0  0
    0.1405    1.5431   -2.5875 C   0  0  0  0  0  0  0  0  0  0  0  0
   -0.8685    3.9513   -1.3458 C   0  0  0  0  0  0  0  0  0  0  0  0
    4.1963    2.7040   -0.2233 C   0  0  0  0  0  0  0  0  0  0  0  0
    2.5935    1.5338    1.8838 C   0  0  0  0  0  0  0  0  0  0  0  0
    3.8847   -1.6483   -2.1504 C   0  0  0  0  0  0  0  0  0  0  0  0
    4.7019   -1.2204    0.5869 C   0  0  0  0  0  0  0  0  0  0  0  0
    0.3085   -2.3293   -2.0944 C   0  0  0  0  0  0  0  0  0  0  0  0
    0.1723   -4.1270    0.1440 C   0  0  0  0  0  0  0  0  0  0  0  0
   -2.0903   -2.0080    2.5777 C   0  0  0  0  0  0  0  0  0  0  0  0
    0.7831   -1.8539    3.0377 C   0  0  0  0  0  0  0  0  0  0  0  0
   -3.5133    2.5047    1.1531 H   0  0  0  0  0  0  0  0  0  0  0  0
   -3.5458    0.7423    1.4476 H   0  0  0  0  0  0  0  0  0  0  0  0
   -3.3468    1.8708    2.8574 H   0  0  0  0  0  0  0  0  0  0  0  0
   -1.3283    4.0280    1.9173 H   0  0  0  0  0  0  0  0  0  0  0  0
   -0.6451    3.1381    3.3380 H   0  0  0  0  0  0  0  0  0  0  0  0
    0.3535    3.3772    1.8380 H   0  0  0  0  0  0  0  0  0  0  0  0
    0.8180    0.6825   -2.4380 H   0  0  0  0  0  0  0  0  0  0  0  0
   -0.8691    1.2257   -2.9163 H   0  0  0  0  0  0  0  0  0  0  0  0
    0.6015    2.2408   -3.3135 H   0  0  0  0  0  0  0  0  0  0  0  0
   -0.3018    4.5629   -2.0738 H   0  0  0  0  0  0  0  0  0  0  0  0
   -1.8617    3.6701   -1.7495 H   0  0  0  0  0  0  0  0  0  0  0  0
   -0.9924    4.5308   -0.4118 H   0  0  0  0  0  0  0  0  0  0  0  0
    5.0654    2.1288    0.1526 H   0  0  0  0  0  0  0  0  0  0  0  0
    4.2987    2.8521   -1.3154 H   0  0  0  0  0  0  0  0  0  0  0  0
    4.1547    3.6917    0.2748 H   0  0  0  0  0  0  0  0  0  0  0  0
    2.6530    2.5160    2.3926 H   0  0  0  0  0  0  0  0  0  0  0  0
    1.6335    1.0465    2.1547 H   0  0  0  0  0  0  0  0  0  0  0  0
    3.4430    0.9064    2.2163 H   0  0  0  0  0  0  0  0  0  0  0  0
    4.2403   -2.6957   -2.1080 H   0  0  0  0  0  0  0  0  0  0  0  0
    3.0656   -1.5676   -2.8899 H   0  0  0  0  0  0  0  0  0  0  0  0
    4.7063   -0.9754   -2.4642 H   0  0  0  0  0  0  0  0  0  0  0  0
    5.4891   -0.5169    0.2531 H   0  0  0  0  0  0  0  0  0  0  0  0
    4.3954   -0.9736    1.6211 H   0  0  0  0  0  0  0  0  0  0  0  0
    5.0945   -2.2553    0.5811 H   0  0  0  0  0  0  0  0  0  0  0  0
    0.9846   -3.0352   -2.6156 H   0  0  0  0  0  0  0  0  0  0  0  0
   -0.7561   -2.5904   -2.2629 H   0  0  0  0  0  0  0  0  0  0  0  0
    0.4836   -1.2989   -2.4527 H   0  0  0  0  0  0  0  0  0  0  0  0
    0.3675   -4.3000    1.2191 H   0  0  0  0  0  0  0  0  0  0  0  0
   -0.9118   -4.2161   -0.0711 H   0  0  0  0  0  0  0  0  0  0  0  0
    0.7541   -4.8635   -0.4431 H   0  0  0  0  0  0  0  0  0  0  0  0
   -2.3325   -1.7773    3.6330 H   0  0  0  0  0  0  0  0  0  0  0  0
   -2.9144   -1.6932    1.9083 H   0  0  0  0  0  0  0  0  0  0  0  0
   -1.9486   -3.0979    2.4427 H   0  0  0  0  0  0  0  0  0  0  0  0
    1.7447   -1.5360    2.5959 H   0  0  0  0  0  0  0  0  0  0  0  0
    0.6921   -1.4907    4.0788 H   0  0  0  0  0  0  0  0  0  0  0  0
    0.7344   -2.9586    3.0185 H   0  0  0  0  0  0  0  0  0  0  0  0
  1 13  1  0  0  0  0
  1 14  1  0  0  0  0
  1 12  1  0  0  0  0
  2  8  1  0  0  0  0
  2  7  1  0  0  0  0
  3 18  1  0  0  0  0
  4 10  1  0  0  0  0
  4 20  1  0  0  0  0
  5 10  1  0  0  0  0
  5 22  1  0  0  0  0
  5 11  1  0  0  0  0
  6 12  1  0  0  0  0
  6 23  1  0  0  0  0
  6 24  1  0  0  0  0
  7  1  1  0  0  0  0
  8  3  1  0  0  0  0
  9  4  1  0  0  0  0
  9  3  1  0  0  0  0
 11  6  1  0  0  0  0
 13 27  1  0  0  0  0
 14 29  1  0  0  0  0
 15 31  1  0  0  0  0
 15  2  1  0  0  0  0
 16  2  1  0  0  0  0
 16 36  1  0  0  0  0
 17  3  1  0  0  0  0
 17 37  1  0  0  0  0
 17 39  1  0  0  0  0
 18 41  1  0  0  0  0
 18 42  1  0  0  0  0
 18 40  1  0  0  0  0
 19 43  1  0  0  0  0
 19  4  1  0  0  0  0
 20 47  1  0  0  0  0
 21  5  1  0  0  0  0
 22 52  1  0  0  0  0
 23 55  1  0  0  0  0
 24 59  1  0  0  0  0
 25 13  1  0  0  0  0
 26 13  1  0  0  0  0
 28 14  1  0  0  0  0
 30 14  1  0  0  0  0
 32 15  1  0  0  0  0
 33 15  1  0  0  0  0
 34 16  1  0  0  0  0
 35 16  1  0  0  0  0
 38 17  1  0  0  0  0
 44 19  1  0  0  0  0
 45 19  1  0  0  0  0
 46 20  1  0  0  0  0
 48 20  1  0  0  0  0
 49 21  1  0  0  0  0
 50 21  1  0  0  0  0
 51 21  1  0  0  0  0
 53 22  1  0  0  0  0
 54 22  1  0  0  0  0
 56 23  1  0  0  0  0
 57 23  1  0  0  0  0
 58 24  1  0  0  0  0
 60 24  1  0  0  0  0
M  END
