15,18
 OpenBabel05122313053D

 20 19  0  0  1  0  0  0  0  0999 V2000
    3.7016   -0.2404   -0.5282 N   0  0  0  0  0  0  0  0  0  0  0  0
    4.6936    0.3385    0.3756 C   0  0  0  0  0  0  0  0  0  0  0  0
    5.7063    0.1100   -0.0100 H   0  0  0  0  0  0  0  0  0  0  0  0
    4.6027    1.4414    0.4110 H   0  0  0  0  0  0  0  0  0  0  0  0
    4.6222   -0.0552    1.4167 H   0  0  0  0  0  0  0  0  0  0  0  0
    3.8941   -1.6688   -0.7580 C   0  0  0  0  0  0  0  0  0  0  0  0
    3.1797   -2.0242   -1.5278 H   0  0  0  0  0  0  0  0  0  0  0  0
    4.9192   -1.8459   -1.1383 H   0  0  0  0  0  0  0  0  0  0  0  0
    3.7519   -2.2844    0.1615 H   0  0  0  0  0  0  0  0  0  0  0  0
    2.3581    0.1368   -0.3351 C   0  0  2  0  0  0  0  0  0  0  0  0
    1.7260   -0.3576   -1.1120 H   0  0  0  0  0  0  0  0  0  0  0  0
    2.0988    1.6460   -0.3781 C   0  0  0  0  0  0  0  0  0  0  0  0
    2.4374    2.1018    0.5707 H   0  0  0  0  0  0  0  0  0  0  0  0
    2.6686    2.0987   -1.2140 H   0  0  0  0  0  0  0  0  0  0  0  0
    0.6349    1.9071   -0.5324 N   0  0  0  0  0  0  0  0  0  0  0  0
    0.4011    2.7683   -0.0158 H   0  0  0  0  0  0  0  0  0  0  0  0
    0.4471    2.1338   -1.5217 H   0  0  0  0  0  0  0  0  0  0  0  0
    0.4406   -0.6231    0.8953 N   0  3  0  0  0  2  0  0  0  0  0  0
    0.0064   -0.8976    2.0135 O   0  5  0  0  0  0  0  0  0  0  0  0
    1.8384   -0.3211    0.9648 O   0  0  0  0  0  0  0  0  0  0  0  0
  1 10  1  0  0  0  0
  1  2  1  0  0  0  0
  2  4  1  0  0  0  0
  2  5  1  0  0  0  0
  3  2  1  0  0  0  0
  6  1  1  0  0  0  0
  6  9  1  0  0  0  0
  7  6  1  0  0  0  0
  8  6  1  0  0  0  0
 10 11  1  6  0  0  0
 10 20  1  0  0  0  0
 12 10  1  0  0  0  0
 12 13  1  0  0  0  0
 14 12  1  0  0  0  0
 15 12  1  0  0  0  0
 15 16  1  0  0  0  0
 17 15  1  0  0  0  0
 18 20  1  0  0  0  0
 18 19  1  0  0  0  0
M  CHG  2  18   1  19  -1
M  END
