1,2
 OpenBabel05122313053D

 16 16  0  0  1  0  0  0  0  0999 V2000
    1.4701    0.8038   -0.4992 N   0  0  0  0  0  0  0  0  0  0  0  0
    0.6610   -1.8401    0.0619 N   0  0  0  0  0  0  0  0  0  0  0  0
    2.5150   -0.2889   -0.4204 C   0  0  1  0  0  0  0  0  0  0  0  0
    2.8716    0.2078    1.0052 C   0  0  0  0  0  0  0  0  0  0  0  0
    2.1528    1.5240    0.6336 C   0  0  0  0  0  0  0  0  0  0  0  0
    1.9427   -1.6805   -0.6683 C   0  0  0  0  0  0  0  0  0  0  0  0
    1.3980    1.3315   -1.3831 H   0  0  0  0  0  0  0  0  0  0  0  0
    0.8096   -2.0791    1.0546 H   0  0  0  0  0  0  0  0  0  0  0  0
    0.0669   -2.5904   -0.3265 H   0  0  0  0  0  0  0  0  0  0  0  0
    3.3490   -0.0982   -1.1297 H   0  0  0  0  0  0  0  0  0  0  0  0
    3.9462    0.2640    1.2575 H   0  0  0  0  0  0  0  0  0  0  0  0
    2.3327   -0.3447    1.7994 H   0  0  0  0  0  0  0  0  0  0  0  0
    2.8497    2.2987    0.2508 H   0  0  0  0  0  0  0  0  0  0  0  0
    1.4392    1.9730    1.3470 H   0  0  0  0  0  0  0  0  0  0  0  0
    2.6881   -2.4567   -0.3864 H   0  0  0  0  0  0  0  0  0  0  0  0
    1.7224   -1.7942   -1.7481 H   0  0  0  0  0  0  0  0  0  0  0  0
  1  3  1  0  0  0  0
  1  5  1  0  0  0  0
  2  8  1  0  0  0  0
  3 10  1  6  0  0  0
  3  4  1  0  0  0  0
  4 11  1  0  0  0  0
  4 12  1  0  0  0  0
  5  4  1  0  0  0  0
  5 14  1  0  0  0  0
  6  3  1  0  0  0  0
  6 15  1  0  0  0  0
  6  2  1  0  0  0  0
  7  1  1  0  0  0  0
  9  2  1  0  0  0  0
 13  5  1  0  0  0  0
 16  6  1  0  0  0  0
M  END
