1,2
 OpenBabel05122313053D

 13 13  0  0  1  0  0  0  0  0999 V2000
    1.4889    1.0829   -0.1249 N   0  0  0  0  0  0  0  0  0  0  0  0
    1.0784   -1.6188    0.1336 N   0  0  0  0  0  0  0  0  0  0  0  0
    2.6669    0.2192   -0.3717 C   0  0  1  0  0  0  0  0  0  0  0  0
    2.5168    0.9445    0.9279 C   0  0  0  0  0  0  0  0  0  0  0  0
    2.3266   -1.2502   -0.5807 C   0  0  0  0  0  0  0  0  0  0  0  0
    1.4473    1.9959   -0.6039 H   0  0  0  0  0  0  0  0  0  0  0  0
    0.6091   -2.4389   -0.2856 H   0  0  0  0  0  0  0  0  0  0  0  0
    1.2548   -1.8638    1.1202 H   0  0  0  0  0  0  0  0  0  0  0  0
    3.4277    0.6093   -1.0686 H   0  0  0  0  0  0  0  0  0  0  0  0
    3.1687    1.8150    1.1054 H   0  0  0  0  0  0  0  0  0  0  0  0
    2.1702    0.4256    1.8347 H   0  0  0  0  0  0  0  0  0  0  0  0
    2.1444   -1.4063   -1.6621 H   0  0  0  0  0  0  0  0  0  0  0  0
    3.1836   -1.8925   -0.2812 H   0  0  0  0  0  0  0  0  0  0  0  0
  1  4  1  0  0  0  0
  2  8  1  0  0  0  0
  3  9  1  6  0  0  0
  3  1  1  0  0  0  0
  3  4  1  0  0  0  0
  4 10  1  0  0  0  0
  4 11  1  0  0  0  0
  5  3  1  0  0  0  0
  5 13  1  0  0  0  0
  5  2  1  0  0  0  0
  6  1  1  0  0  0  0
  7  2  1  0  0  0  0
 12  5  1  0  0  0  0
M  END
