3,13
 OpenBabel05122313053D

 49 54  0  0  1  0  0  0  0  0999 V2000
    6.6811   -0.1286   -1.6100 C   0  0  0  0  0  0  0  0  0  0  0  0
    7.2390   -0.8088   -2.2786 H   0  0  0  0  0  0  0  0  0  0  0  0
   -1.5216    0.5190    0.6158 N   0  0  0  0  0  2  0  0  0  0  0  0
    0.8986   -2.7171    0.5597 C   0  0  0  0  0  0  0  0  0  0  0  0
   -0.0495   -2.7496    1.1184 H   0  0  0  0  0  0  0  0  0  0  0  0
    5.5123   -0.5913   -1.1448 N   0  0  0  0  0  0  0  0  0  0  0  0
   -1.5016    2.6912    0.1407 N   0  0  0  0  0  0  0  0  0  0  0  0
    2.9388   -1.5221   -0.0619 N   0  0  0  0  0  0  0  0  0  0  0  0
    4.7877    0.2036   -0.3198 C   0  0  0  0  0  0  0  0  0  0  0  0
    2.7136    0.4397    1.0100 N   0  0  0  0  0  0  0  0  0  0  0  0
    3.5130   -0.2771    0.1966 C   0  0  0  0  0  0  0  0  0  0  0  0
    1.7177   -1.5670    0.6465 C   0  0  0  0  0  0  0  0  0  0  0  0
   -3.8491   -0.0763   -0.5290 N   0  0  0  0  0  2  0  0  0  0  0  0
    0.4732    0.2032    2.1040 C   0  0  0  0  0  0  0  0  0  0  0  0
   -0.1271   -0.6266    2.5322 H   0  0  0  0  0  0  0  0  0  0  0  0
    0.8580    0.8195    2.9406 H   0  0  0  0  0  0  0  0  0  0  0  0
   -4.9228   -0.5491   -1.1734 C   0  0  0  0  0  3  0  0  0  0  0  0
   -5.1791   -1.6005   -0.9668 H   0  0  0  0  0  0  0  0  0  0  0  0
   -2.1731    1.4983   -0.0499 C   0  0  2  0  0  3  0  0  0  0  0  0
    0.5378    3.4361    1.2802 C   0  0  0  0  0  0  0  0  0  0  0  0
    1.4318    3.1643    1.8586 H   0  0  0  0  0  0  0  0  0  0  0  0
    1.6320   -0.3166    1.3014 C   0  0  0  0  0  0  0  0  0  0  0  0
   -0.3769    2.4075    0.9608 C   0  0  0  0  0  0  0  0  0  0  0  0
   -1.7556    3.9894   -0.2689 C   0  0  0  0  0  0  0  0  0  0  0  0
   -2.6733    4.1639   -0.8391 H   0  0  0  0  0  0  0  0  0  0  0  0
   -3.3941    1.1838   -0.7820 C   0  0  0  0  0  0  0  0  0  0  0  0
    0.3001    4.7233    0.8306 C   0  0  0  0  0  0  0  0  0  0  0  0
    1.0035    5.5359    1.0591 H   0  0  0  0  0  0  0  0  0  0  0  0
    2.5451   -3.6969   -0.9391 C   0  0  0  0  0  0  0  0  0  0  0  0
    2.8797   -4.5301   -1.5730 H   0  0  0  0  0  0  0  0  0  0  0  0
    5.2353    1.4981    0.0581 C   0  0  0  0  0  0  0  0  0  0  0  0
    4.6074    2.0959    0.7324 H   0  0  0  0  0  0  0  0  0  0  0  0
   -0.4514    1.0307    1.2621 C   0  0  0  0  0  0  0  0  0  0  0  0
   -4.0632    2.0123   -1.7111 C   0  0  0  0  0  0  0  0  0  0  0  0
   -3.6769    3.0049   -1.9717 H   0  0  0  0  0  0  0  0  0  0  0  0
   -5.2116    1.5283   -2.3474 C   0  0  0  0  0  0  0  0  0  0  0  0
   -5.7420    2.1628   -3.0732 H   0  0  0  0  0  0  0  0  0  0  0  0
   -5.6603    0.2270   -2.0775 C   0  0  0  0  0  0  0  0  0  0  0  0
   -6.5489   -0.1900   -2.5710 H   0  0  0  0  0  0  0  0  0  0  0  0
    3.3539   -2.5854   -0.8430 C   0  0  0  0  0  0  0  0  0  0  0  0
    4.3214   -2.4345   -1.3389 H   0  0  0  0  0  0  0  0  0  0  0  0
    7.2038    1.1334   -1.2946 C   0  0  0  0  0  0  0  0  0  0  0  0
    8.1702    1.4577   -1.7072 H   0  0  0  0  0  0  0  0  0  0  0  0
   -0.8755    4.9927    0.0651 C   0  0  0  0  0  0  0  0  0  0  0  0
   -1.0986    6.0133   -0.2753 H   0  0  0  0  0  0  0  0  0  0  0  0
    1.3028   -3.7718   -0.2409 C   0  0  0  0  0  0  0  0  0  0  0  0
    0.6552   -4.6524   -0.3501 H   0  0  0  0  0  0  0  0  0  0  0  0
    6.4534    1.9598   -0.4370 C   0  0  0  0  0  0  0  0  0  0  0  0
    6.8228    2.9588   -0.1577 H   0  0  0  0  0  0  0  0  0  0  0  0
  1 42  2  0  0  0  0
  1  6  1  0  0  0  0
  2  1  1  0  0  0  0
  3 33  1  0  0  0  0
  4 12  1  0  0  0  0
  4  5  1  0  0  0  0
  6  9  2  0  0  0  0
  7 23  1  0  0  0  0
  8 11  1  0  0  0  0
  8 12  1  0  0  0  0
  9 31  1  0  0  0  0
  9 11  1  0  0  0  0
 10 22  1  0  0  0  0
 11 10  2  0  0  0  0
 12 22  2  0  0  0  0
 14 15  1  0  0  0  0
 14 16  1  0  0  0  0
 17 18  1  0  0  0  0
 17 13  1  0  0  0  0
 19 26  1  1  0  0  0
 19  7  1  0  0  0  0
 19  3  1  0  0  0  0
 20 21  1  0  0  0  0
 22 14  1  0  0  0  0
 23 33  2  0  0  0  0
 23 20  1  0  0  0  0
 24 44  2  0  0  0  0
 24  7  1  0  0  0  0
 25 24  1  0  0  0  0
 26 13  1  0  0  0  0
 27 28  1  0  0  0  0
 27 20  2  0  0  0  0
 29 40  2  0  0  0  0
 29 46  1  0  0  0  0
 30 29  1  0  0  0  0
 31 32  1  0  0  0  0
 33 14  1  0  0  0  0
 34 26  2  0  0  0  0
 35 34  1  0  0  0  0
 36 38  2  0  0  0  0
 36 34  1  0  0  0  0
 37 36  1  0  0  0  0
 38 17  1  0  0  0  0
 39 38  1  0  0  0  0
 40  8  1  0  0  0  0
 41 40  1  0  0  0  0
 42 48  1  0  0  0  0
 43 42  1  0  0  0  0
 44 27  1  0  0  0  0
 45 44  1  0  0  0  0
 46  4  2  0  0  0  0
 47 46  1  0  0  0  0
 48 49  1  0  0  0  0
 48 31  2  0  0  0  0
M  END
