1,2
 OpenBabel05122313053D

 27 29  0  0  0  0  0  0  0  0999 V2000
    2.2048    1.4428    0.1157 N   0  0  0  0  0  2  0  0  0  0  0  0
   -0.1052    0.1274    0.1910 N   0  0  0  0  0  2  0  0  0  0  0  0
   -1.2998   -0.3962    0.2143 N   0  0  0  0  0  2  0  0  0  0  0  0
   -2.1660    0.6359    0.1036 N   0  0  0  0  0  0  0  0  0  0  0  0
   -8.0176   -0.4407   -0.0485 Cl  0  0  0  0  0  0  0  0  0  0  0  0
    3.4192    2.0313    0.1030 C   0  0  0  0  0  3  0  0  0  0  0  0
    4.2824    1.3533    0.1643 H   0  0  0  0  0  0  0  0  0  0  0  0
    3.5841    3.4163    0.0062 C   0  0  0  0  0  0  0  0  0  0  0  0
    4.5974    3.8413   -0.0053 H   0  0  0  0  0  0  0  0  0  0  0  0
    2.4460    4.2337   -0.0799 C   0  0  0  0  0  0  0  0  0  0  0  0
    2.5420    5.3263   -0.1595 H   0  0  0  0  0  0  0  0  0  0  0  0
    1.1837    3.6330   -0.0637 C   0  0  0  0  0  0  0  0  0  0  0  0
    0.2675    4.2368   -0.1279 H   0  0  0  0  0  0  0  0  0  0  0  0
    1.0928    2.2340    0.0306 C   0  0  0  0  0  0  0  0  0  0  0  0
   -0.1633    1.4992    0.0672 C   0  0  0  0  0  0  0  0  0  0  0  0
   -1.5100    1.8344    0.0106 C   0  0  0  0  0  0  0  0  0  0  0  0
   -2.0293    2.7855   -0.1267 H   0  0  0  0  0  0  0  0  0  0  0  0
   -3.5670    0.3840    0.0780 C   0  0  0  0  0  0  0  0  0  0  0  0
   -4.4722    1.3866    0.4665 C   0  0  0  0  0  0  0  0  0  0  0  0
   -4.1127    2.3604    0.8279 H   0  0  0  0  0  0  0  0  0  0  0  0
   -5.8479    1.1342    0.4216 C   0  0  0  0  0  0  0  0  0  0  0  0
   -6.5679    1.9065    0.7246 H   0  0  0  0  0  0  0  0  0  0  0  0
   -6.3093   -0.1254    0.0022 C   0  0  0  0  0  0  0  0  0  0  0  0
   -5.4022   -1.1326   -0.3726 C   0  0  0  0  0  0  0  0  0  0  0  0
   -5.7783   -2.1121   -0.6984 H   0  0  0  0  0  0  0  0  0  0  0  0
   -4.0281   -0.8776   -0.3395 C   0  0  0  0  0  0  0  0  0  0  0  0
   -3.3025   -1.6466   -0.6362 H   0  0  0  0  0  0  0  0  0  0  0  0
  2  3  1  0  0  0  0
  4  3  1  0  0  0  0
  5 23  1  0  0  0  0
  6  1  1  0  0  0  0
  6  7  1  0  0  0  0
  8  6  1  0  0  0  0
  9  8  1  0  0  0  0
 10 12  1  0  0  0  0
 10  8  2  0  0  0  0
 11 10  1  0  0  0  0
 12 14  2  0  0  0  0
 13 12  1  0  0  0  0
 14 15  1  0  0  0  0
 14  1  1  0  0  0  0
 15  2  1  0  0  0  0
 16 15  2  0  0  0  0
 16  4  1  0  0  0  0
 17 16  1  0  0  0  0
 18  4  1  0  0  0  0
 18 19  1  0  0  0  0
 19 20  1  0  0  0  0
 21 19  2  0  0  0  0
 21 22  1  0  0  0  0
 23 21  1  0  0  0  0
 24 26  1  0  0  0  0
 24 23  2  0  0  0  0
 25 24  1  0  0  0  0
 26 18  2  0  0  0  0
 27 26  1  0  0  0  0
M  END
