3,4
 OpenBabel05122313053D

 33 35  0  0  0  0  0  0  0  0999 V2000
    6.8778    0.5692    0.1068 O   0  0  0  0  0  0  0  0  0  0  0  0
    5.6041   -1.3456    0.3931 O   0  0  0  0  0  0  0  0  0  0  0  0
   -3.3868    0.4745   -0.0107 N   0  0  0  0  0  2  0  0  0  0  0  0
   -0.8546    0.8950    0.5092 N   0  0  0  0  0  2  0  0  0  0  0  0
   -4.6676    0.1767   -0.2977 C   0  0  0  0  0  0  0  0  0  0  0  0
   -4.8489   -0.8879   -0.5287 H   0  0  0  0  0  0  0  0  0  0  0  0
   -5.6673    1.1588   -0.2917 C   0  0  0  0  0  0  0  0  0  0  0  0
   -6.7013    0.8740   -0.5324 H   0  0  0  0  0  0  0  0  0  0  0  0
   -5.3307    2.4855    0.0224 C   0  0  0  0  0  0  0  0  0  0  0  0
   -6.0997    3.2717    0.0351 H   0  0  0  0  0  0  0  0  0  0  0  0
   -3.9978    2.7936    0.3198 C   0  0  0  0  0  0  0  0  0  0  0  0
   -3.6879    3.8183    0.5706 H   0  0  0  0  0  0  0  0  0  0  0  0
   -3.0379    1.7664    0.2950 C   0  0  0  0  0  0  0  0  0  0  0  0
   -1.6245    1.9483    0.5655 C   0  0  0  0  0  0  0  0  0  0  0  0
   -1.2148    2.9476    0.8010 H   0  0  0  0  0  0  0  0  0  0  0  0
    0.5844    1.0155    0.6743 C   0  0  0  0  0  0  0  0  0  0  0  0
    0.8323    1.9604    1.2047 H   0  0  0  0  0  0  0  0  0  0  0  0
    0.9191    0.1482    1.2766 H   0  0  0  0  0  0  0  0  0  0  0  0
    1.3011    0.9612   -0.6956 C   0  0  0  0  0  0  0  0  0  0  0  0
    0.9978    1.8423   -1.2984 H   0  0  0  0  0  0  0  0  0  0  0  0
    0.9428    0.0490   -1.2142 H   0  0  0  0  0  0  0  0  0  0  0  0
    2.7999    0.9181   -0.5274 C   0  0  0  0  0  0  0  0  0  0  0  0
    3.5823    2.0762   -0.6905 C   0  0  0  0  0  0  0  0  0  0  0  0
    3.0906    3.0174   -0.9817 H   0  0  0  0  0  0  0  0  0  0  0  0
    4.9850    2.0666   -0.5085 C   0  0  0  0  0  0  0  0  0  0  0  0
    5.5950    2.9701   -0.6430 H   0  0  0  0  0  0  0  0  0  0  0  0
    5.5616    0.8536   -0.1526 C   0  0  0  0  0  0  0  0  0  0  0  0
    6.9401   -0.8530    0.2679 C   0  0  0  0  0  0  0  0  0  0  0  0
    7.5169   -1.0990    1.1851 H   0  0  0  0  0  0  0  0  0  0  0  0
    7.4261   -1.3088   -0.6301 H   0  0  0  0  0  0  0  0  0  0  0  0
    4.7870   -0.3086    0.0203 C   0  0  0  0  0  0  0  0  0  0  0  0
    3.4106   -0.3113   -0.1552 C   0  0  0  0  0  0  0  0  0  0  0  0
    2.8078   -1.2214   -0.0193 H   0  0  0  0  0  0  0  0  0  0  0  0
  1 28  1  0  0  0  0
  3 13  1  0  0  0  0
  4 14  1  0  0  0  0
  4 16  1  0  0  0  0
  5  7  2  0  0  0  0
  5  3  1  0  0  0  0
  6  5  1  0  0  0  0
  7  9  1  0  0  0  0
  8  7  1  0  0  0  0
  9 10  1  0  0  0  0
  9 11  2  0  0  0  0
 11 12  1  0  0  0  0
 13 11  1  0  0  0  0
 13 14  2  0  0  0  0
 14 15  1  0  0  0  0
 16 17  1  0  0  0  0
 16 18  1  0  0  0  0
 19 22  1  0  0  0  0
 19 16  1  0  0  0  0
 20 19  1  0  0  0  0
 21 19  1  0  0  0  0
 22 32  1  0  0  0  0
 23 22  2  0  0  0  0
 23 25  1  0  0  0  0
 24 23  1  0  0  0  0
 25 27  2  0  0  0  0
 26 25  1  0  0  0  0
 27 31  1  0  0  0  0
 27  1  1  0  0  0  0
 28  2  1  0  0  0  0
 28 29  1  0  0  0  0
 30 28  1  0  0  0  0
 31  2  1  0  0  0  0
 32 33  1  0  0  0  0
 32 31  2  0  0  0  0
M  END
