2,5
 OpenBabel05122313053D

 50 52  0  0  0  0  0  0  0  0999 V2000
    2.1614    0.7615   -0.0590 N   0  0  0  0  0  2  0  0  0  0  0  0
    0.8878    0.5831    0.0087 N   0  0  0  0  0  2  0  0  0  0  0  0
    0.0307    1.6775    0.0570 C   0  0  0  0  0  0  0  0  0  0  0  0
   -1.2805    1.3882    0.1123 N   0  0  0  0  0  0  0  0  0  0  0  0
   -1.6367    0.1421    0.1156 N   0  0  0  0  0  2  0  0  0  0  0  0
    2.9976   -0.3211    0.1854 C   0  0  0  0  0  0  0  0  0  0  0  0
    2.8799   -1.1175    1.3696 C   0  0  0  0  0  0  0  0  0  0  0  0
    3.8053   -2.1617    1.5484 C   0  0  0  0  0  0  0  0  0  0  0  0
    3.7384   -2.7757    2.4601 H   0  0  0  0  0  0  0  0  0  0  0  0
    4.8061   -2.4221    0.6041 C   0  0  0  0  0  0  0  0  0  0  0  0
    5.5067   -3.2555    0.7623 H   0  0  0  0  0  0  0  0  0  0  0  0
    4.9344   -1.6031   -0.5294 C   0  0  0  0  0  0  0  0  0  0  0  0
    5.7309   -1.7990   -1.2638 H   0  0  0  0  0  0  0  0  0  0  0  0
    4.0561   -0.5341   -0.7487 C   0  0  0  0  0  0  0  0  0  0  0  0
    1.8749   -0.8031    2.4526 C   0  0  0  0  0  0  0  0  0  0  0  0
    0.8706   -1.2209    2.2251 H   0  0  0  0  0  0  0  0  0  0  0  0
    1.7429    0.2899    2.5795 H   0  0  0  0  0  0  0  0  0  0  0  0
    2.2050   -1.2310    3.4186 H   0  0  0  0  0  0  0  0  0  0  0  0
    4.1575    0.3387   -1.9694 C   0  0  0  0  0  0  0  0  0  0  0  0
    5.1113    0.1707   -2.5046 H   0  0  0  0  0  0  0  0  0  0  0  0
    4.0743    1.4116   -1.7022 H   0  0  0  0  0  0  0  0  0  0  0  0
    3.3264    0.1353   -2.6775 H   0  0  0  0  0  0  0  0  0  0  0  0
   -3.0426   -0.1142    0.1337 C   0  0  0  0  0  0  0  0  0  0  0  0
   -3.8503    0.2963   -0.9557 C   0  0  0  0  0  0  0  0  0  0  0  0
   -5.2183   -0.0317   -0.9149 C   0  0  0  0  0  0  0  0  0  0  0  0
   -5.8611    0.2683   -1.7572 H   0  0  0  0  0  0  0  0  0  0  0  0
   -5.7628   -0.7405    0.1647 C   0  0  0  0  0  0  0  0  0  0  0  0
   -6.8347   -0.9893    0.1740 H   0  0  0  0  0  0  0  0  0  0  0  0
   -4.9425   -1.1373    1.2294 C   0  0  0  0  0  0  0  0  0  0  0  0
   -5.3696   -1.6893    2.0811 H   0  0  0  0  0  0  0  0  0  0  0  0
   -3.5694   -0.8325    1.2352 C   0  0  0  0  0  0  0  0  0  0  0  0
   -3.2569    1.0224   -2.1348 C   0  0  0  0  0  0  0  0  0  0  0  0
   -2.9496    2.0538   -1.8679 H   0  0  0  0  0  0  0  0  0  0  0  0
   -3.9822    1.0800   -2.9684 H   0  0  0  0  0  0  0  0  0  0  0  0
   -2.3414    0.5108   -2.4993 H   0  0  0  0  0  0  0  0  0  0  0  0
   -2.6811   -1.2288    2.3848 C   0  0  0  0  0  0  0  0  0  0  0  0
   -1.8446   -1.8805    2.0482 H   0  0  0  0  0  0  0  0  0  0  0  0
   -3.2513   -1.7700    3.1633 H   0  0  0  0  0  0  0  0  0  0  0  0
   -2.2061   -0.3413    2.8515 H   0  0  0  0  0  0  0  0  0  0  0  0
    0.4101    3.1072    0.1224 C   0  0  0  0  0  0  0  0  0  0  0  0
    1.7431    3.5885    0.1058 C   0  0  0  0  0  0  0  0  0  0  0  0
    2.5675    2.8716    0.0386 H   0  0  0  0  0  0  0  0  0  0  0  0
    2.0079    4.9649    0.1738 C   0  0  0  0  0  0  0  0  0  0  0  0
    3.0537    5.3087    0.1592 H   0  0  0  0  0  0  0  0  0  0  0  0
    0.9646    5.8961    0.2581 C   0  0  0  0  0  0  0  0  0  0  0  0
    1.1801    6.9742    0.3095 H   0  0  0  0  0  0  0  0  0  0  0  0
   -0.3627    5.4331    0.2759 C   0  0  0  0  0  0  0  0  0  0  0  0
   -1.1967    6.1484    0.3433 H   0  0  0  0  0  0  0  0  0  0  0  0
   -0.6372    4.0651    0.2104 C   0  0  0  0  0  0  0  0  0  0  0  0
   -1.6749    3.7062    0.2303 H   0  0  0  0  0  0  0  0  0  0  0  0
  1  2  1  0  0  0  0
  1  6  1  0  0  0  0
  2  3  1  0  0  0  0
  3  4  2  0  0  0  0
  3 40  1  0  0  0  0
  4  5  1  0  0  0  0
  5 23  1  0  0  0  0
  6  7  1  0  0  0  0
  7  8  2  0  0  0  0
  7 15  1  0  0  0  0
  8  9  1  0  0  0  0
 10 11  1  0  0  0  0
 10  8  1  0  0  0  0
 12 10  2  0  0  0  0
 13 12  1  0  0  0  0
 14 12  1  0  0  0  0
 14  6  2  0  0  0  0
 15 17  1  0  0  0  0
 15 18  1  0  0  0  0
 16 15  1  0  0  0  0
 19 21  1  0  0  0  0
 19 14  1  0  0  0  0
 20 19  1  0  0  0  0
 22 19  1  0  0  0  0
 23 31  1  0  0  0  0
 24 25  1  0  0  0  0
 24 23  2  0  0  0  0
 25 27  2  0  0  0  0
 26 25  1  0  0  0  0
 27 28  1  0  0  0  0
 27 29  1  0  0  0  0
 29 31  2  0  0  0  0
 29 30  1  0  0  0  0
 31 36  1  0  0  0  0
 32 33  1  0  0  0  0
 32 24  1  0  0  0  0
 34 32  1  0  0  0  0
 35 32  1  0  0  0  0
 36 39  1  0  0  0  0
 36 38  1  0  0  0  0
 37 36  1  0  0  0  0
 40 49  1  0  0  0  0
 41 40  2  0  0  0  0
 41 43  1  0  0  0  0
 42 41  1  0  0  0  0
 43 45  2  0  0  0  0
 44 43  1  0  0  0  0
 45 47  1  0  0  0  0
 45 46  1  0  0  0  0
 47 48  1  0  0  0  0
 49 50  1  0  0  0  0
 49 47  2  0  0  0  0
M  END
