2,4
 OpenBabel05122313053D

 46 45  0  0  0  0  0  0  0  0999 V2000
    1.0127    2.3436   -0.6330 N   0  0  0  0  0  0  0  0  0  0  0  0
    1.5164    0.5569    1.7207 N   0  0  0  0  0  0  0  0  0  0  0  0
    0.8963   -2.1248    0.8557 N   0  0  0  0  0  0  0  0  0  0  0  0
    1.3478   -0.9172   -1.8304 N   0  0  0  0  0  0  0  0  0  0  0  0
   -0.2117    2.9670   -1.1697 C   0  0  0  0  0  0  0  0  0  0  0  0
    2.1430    2.6776   -1.5119 C   0  0  0  0  0  0  0  0  0  0  0  0
    1.2918    2.8183    0.7357 C   0  0  0  0  0  0  0  0  0  0  0  0
    2.1969    1.8508    1.4924 C   0  0  0  0  0  0  0  0  0  0  0  0
    0.5732    0.6658    2.8550 C   0  0  0  0  0  0  0  0  0  0  0  0
    2.4749   -0.5481    1.9398 C   0  0  0  0  0  0  0  0  0  0  0  0
    1.7630   -1.8973    2.0257 C   0  0  0  0  0  0  0  0  0  0  0  0
   -0.3591   -2.8034    1.2156 C   0  0  0  0  0  0  0  0  0  0  0  0
    1.5849   -2.8256   -0.2413 C   0  0  0  0  0  0  0  0  0  0  0  0
    1.0812   -2.3589   -1.6010 C   0  0  0  0  0  0  0  0  0  0  0  0
    2.7919   -0.6951   -2.0385 C   0  0  0  0  0  0  0  0  0  0  0  0
    0.6016   -0.4548   -3.0211 C   0  0  0  0  0  0  0  0  0  0  0  0
   -0.1127    4.0758   -1.2299 H   0  0  0  0  0  0  0  0  0  0  0  0
   -0.4104    2.5783   -2.1866 H   0  0  0  0  0  0  0  0  0  0  0  0
   -1.0809    2.7047   -0.5406 H   0  0  0  0  0  0  0  0  0  0  0  0
    2.2896    3.7815   -1.5813 H   0  0  0  0  0  0  0  0  0  0  0  0
    3.0849    2.2325   -1.1395 H   0  0  0  0  0  0  0  0  0  0  0  0
    1.9580    2.3009   -2.5354 H   0  0  0  0  0  0  0  0  0  0  0  0
    1.7526    3.8346    0.7264 H   0  0  0  0  0  0  0  0  0  0  0  0
    0.3245    2.9236    1.2666 H   0  0  0  0  0  0  0  0  0  0  0  0
    2.5241    2.3027    2.4564 H   0  0  0  0  0  0  0  0  0  0  0  0
    3.1185    1.6558    0.9074 H   0  0  0  0  0  0  0  0  0  0  0  0
   -0.0209    1.5913    2.7630 H   0  0  0  0  0  0  0  0  0  0  0  0
   -0.1442   -0.1739    2.8559 H   0  0  0  0  0  0  0  0  0  0  0  0
    1.1181    0.6919    3.8256 H   0  0  0  0  0  0  0  0  0  0  0  0
    3.1930   -0.5418    1.0929 H   0  0  0  0  0  0  0  0  0  0  0  0
    3.0693   -0.3821    2.8691 H   0  0  0  0  0  0  0  0  0  0  0  0
    1.1366   -1.9310    2.9375 H   0  0  0  0  0  0  0  0  0  0  0  0
    2.5194   -2.7050    2.1514 H   0  0  0  0  0  0  0  0  0  0  0  0
   -0.9946   -2.9285    0.3200 H   0  0  0  0  0  0  0  0  0  0  0  0
   -0.1721   -3.8050    1.6677 H   0  0  0  0  0  0  0  0  0  0  0  0
   -0.9406   -2.1814    1.9216 H   0  0  0  0  0  0  0  0  0  0  0  0
    2.6746   -2.6415   -0.1589 H   0  0  0  0  0  0  0  0  0  0  0  0
    1.4548   -3.9301   -0.1611 H   0  0  0  0  0  0  0  0  0  0  0  0
   -0.0141   -2.5148   -1.6685 H   0  0  0  0  0  0  0  0  0  0  0  0
    1.5469   -2.9686   -2.4102 H   0  0  0  0  0  0  0  0  0  0  0  0
    3.3684   -0.9485   -1.1298 H   0  0  0  0  0  0  0  0  0  0  0  0
    3.1750   -1.3178   -2.8789 H   0  0  0  0  0  0  0  0  0  0  0  0
    2.9785    0.3638   -2.2792 H   0  0  0  0  0  0  0  0  0  0  0  0
    0.8147    0.6143   -3.2023 H   0  0  0  0  0  0  0  0  0  0  0  0
    0.8939   -1.0296   -3.9286 H   0  0  0  0  0  0  0  0  0  0  0  0
   -0.4852   -0.5650   -2.8519 H   0  0  0  0  0  0  0  0  0  0  0  0
  1  7  1  0  0  0  0
  2 10  1  0  0  0  0
  2  9  1  0  0  0  0
  3 12  1  0  0  0  0
  3 11  1  0  0  0  0
  4 14  1  0  0  0  0
  5  1  1  0  0  0  0
  5 19  1  0  0  0  0
  6 21  1  0  0  0  0
  6  1  1  0  0  0  0
  7 24  1  0  0  0  0
  7  8  1  0  0  0  0
  8  2  1  0  0  0  0
  8 25  1  0  0  0  0
  9 28  1  0  0  0  0
  9 29  1  0  0  0  0
 10 11  1  0  0  0  0
 10 31  1  0  0  0  0
 11 33  1  0  0  0  0
 11 32  1  0  0  0  0
 12 35  1  0  0  0  0
 12 36  1  0  0  0  0
 13 38  1  0  0  0  0
 13 37  1  0  0  0  0
 13  3  1  0  0  0  0
 14 13  1  0  0  0  0
 15  4  1  0  0  0  0
 15 41  1  0  0  0  0
 16 46  1  0  0  0  0
 16  4  1  0  0  0  0
 17  5  1  0  0  0  0
 18  5  1  0  0  0  0
 20  6  1  0  0  0  0
 22  6  1  0  0  0  0
 23  7  1  0  0  0  0
 26  8  1  0  0  0  0
 27  9  1  0  0  0  0
 30 10  1  0  0  0  0
 34 12  1  0  0  0  0
 39 14  1  0  0  0  0
 40 14  1  0  0  0  0
 42 15  1  0  0  0  0
 43 15  1  0  0  0  0
 44 16  1  0  0  0  0
 45 16  1  0  0  0  0
M  END
