3,4
 OpenBabel05122313053D

 28 29  0  0  0  0  0  0  0  0999 V2000
   -7.0075   -2.6029    0.2776 O   0  0  0  0  0  0  0  0  0  0  0  0
   -4.4582    4.3826   -0.4094 O   0  0  0  0  0  0  0  0  0  0  0  0
   -3.0054   -1.5376   -0.1083 N   0  0  0  0  0  2  0  0  0  0  0  0
   -2.1199    1.0091    0.1484 N   0  0  0  0  0  2  0  0  0  0  0  0
   -3.4163   -2.8237   -0.0982 C   0  0  0  0  0  0  0  0  0  0  0  0
   -2.6266   -3.5847   -0.1947 H   0  0  0  0  0  0  0  0  0  0  0  0
   -4.7493   -3.2067    0.0211 C   0  0  0  0  0  0  0  0  0  0  0  0
   -5.0470   -4.2639    0.0241 H   0  0  0  0  0  0  0  0  0  0  0  0
   -5.7288   -2.1978    0.1482 C   0  0  0  0  0  0  0  0  0  0  0  0
   -5.3067   -0.8549    0.1382 C   0  0  0  0  0  0  0  0  0  0  0  0
   -6.0270   -0.0381    0.2609 H   0  0  0  0  0  0  0  0  0  0  0  0
   -3.9362   -0.5597    0.0018 C   0  0  0  0  0  0  0  0  0  0  0  0
   -3.4413    0.8530   -0.0247 C   0  0  0  0  0  0  0  0  0  0  0  0
   -4.3040    1.9501   -0.2268 C   0  0  0  0  0  0  0  0  0  0  0  0
   -5.3743    1.7958   -0.4073 H   0  0  0  0  0  0  0  0  0  0  0  0
   -3.7497    3.2466   -0.2275 C   0  0  0  0  0  0  0  0  0  0  0  0
   -2.3575    3.3893   -0.0385 C   0  0  0  0  0  0  0  0  0  0  0  0
   -1.9108    4.3933   -0.0430 H   0  0  0  0  0  0  0  0  0  0  0  0
   -1.5815    2.2422    0.1349 C   0  0  0  0  0  0  0  0  0  0  0  0
   -0.4827    2.2639    0.2575 H   0  0  0  0  0  0  0  0  0  0  0  0
   -8.0261   -1.6215    0.4146 C   0  0  0  0  0  0  0  0  0  0  0  0
   -7.8808   -1.0068    1.3297 H   0  0  0  0  0  0  0  0  0  0  0  0
   -8.9789   -2.1745    0.4980 H   0  0  0  0  0  0  0  0  0  0  0  0
   -8.0702   -0.9517   -0.4719 H   0  0  0  0  0  0  0  0  0  0  0  0
   -5.8588    4.2892   -0.6131 C   0  0  0  0  0  0  0  0  0  0  0  0
   -6.1033    3.7146   -1.5338 H   0  0  0  0  0  0  0  0  0  0  0  0
   -6.2259    5.3253   -0.7276 H   0  0  0  0  0  0  0  0  0  0  0  0
   -6.3703    3.8174    0.2551 H   0  0  0  0  0  0  0  0  0  0  0  0
  1 21  1  0  0  0  0
  2 16  1  0  0  0  0
  3  5  1  0  0  0  0
  3 12  1  0  0  0  0
  5  7  2  0  0  0  0
  6  5  1  0  0  0  0
  7  8  1  0  0  0  0
  7  9  1  0  0  0  0
  9  1  1  0  0  0  0
 10  9  2  0  0  0  0
 10 11  1  0  0  0  0
 12 10  1  0  0  0  0
 13 12  2  0  0  0  0
 13  4  1  0  0  0  0
 14 13  1  0  0  0  0
 15 14  1  0  0  0  0
 16 14  2  0  0  0  0
 16 17  1  0  0  0  0
 17 19  2  0  0  0  0
 18 17  1  0  0  0  0
 19  4  1  0  0  0  0
 19 20  1  0  0  0  0
 21 23  1  0  0  0  0
 21 22  1  0  0  0  0
 24 21  1  0  0  0  0
 25  2  1  0  0  0  0
 25 28  1  0  0  0  0
 26 25  1  0  0  0  0
 27 25  1  0  0  0  0
M  END
