1,4
 OpenBabel05122313053D

 22 22  0  0  1  0  0  0  0  0999 V2000
    1.9149   -0.6098    0.1572 N   0  0  0  0  0  2  0  0  0  0  0  0
    2.0492   -2.0434    0.1563 O   0  0  0  0  0  0  0  0  0  0  0  0
    0.9426   -2.6592   -0.2896 C   0  0  2  0  0  3  0  0  0  0  0  0
   -0.1103   -1.9494   -0.5231 N   0  0  0  0  0  2  0  0  0  0  0  0
   -0.9214   -2.4444   -0.9020 H   0  0  0  0  0  0  0  0  0  0  0  0
    1.1059   -4.1311   -0.4463 C   0  0  0  0  0  0  0  0  0  0  0  0
    1.9310   -4.3525   -1.1518 H   0  0  0  0  0  0  0  0  0  0  0  0
    0.1726   -4.5924   -0.8143 H   0  0  0  0  0  0  0  0  0  0  0  0
    1.3707   -4.5789    0.5327 H   0  0  0  0  0  0  0  0  0  0  0  0
    3.0721   -0.0362    0.1709 C   0  0  0  0  0  3  0  0  0  0  0  0
    4.4059   -0.7350    0.1943 C   0  0  0  0  0  0  0  0  0  0  0  0
    5.4169    0.4148    0.3683 C   0  0  0  0  0  0  0  0  0  0  0  0
    4.7279    1.6125   -0.3062 C   0  0  0  0  0  0  0  0  0  0  0  0
    3.2460    1.4570    0.0952 C   0  0  0  0  0  0  0  0  0  0  0  0
    2.5192    1.9041   -0.6121 H   0  0  0  0  0  0  0  0  0  0  0  0
    3.0770    1.8784    1.1133 H   0  0  0  0  0  0  0  0  0  0  0  0
    5.1477    2.5911   -0.0067 H   0  0  0  0  0  0  0  0  0  0  0  0
    4.8169    1.5364   -1.4099 H   0  0  0  0  0  0  0  0  0  0  0  0
    6.4073    0.1777   -0.0633 H   0  0  0  0  0  0  0  0  0  0  0  0
    5.5686    0.6181    1.4491 H   0  0  0  0  0  0  0  0  0  0  0  0
    4.4474   -1.5295    0.9654 H   0  0  0  0  0  0  0  0  0  0  0  0
    4.5302   -1.2482   -0.7865 H   0  0  0  0  0  0  0  0  0  0  0  0
  1 10  1  0  0  0  0
  2  1  1  0  0  0  0
  3  4  1  1  0  0  0
  3  2  1  0  0  0  0
  5  4  1  0  0  0  0
  6  3  1  0  0  0  0
  6  9  1  0  0  0  0
  7  6  1  0  0  0  0
  8  6  1  0  0  0  0
 10 11  1  0  0  0  0
 11 12  1  0  0  0  0
 11 21  1  0  0  0  0
 12 20  1  0  0  0  0
 13 17  1  0  0  0  0
 13 14  1  0  0  0  0
 13 12  1  0  0  0  0
 14 10  1  0  0  0  0
 14 16  1  0  0  0  0
 15 14  1  0  0  0  0
 18 13  1  0  0  0  0
 19 12  1  0  0  0  0
 22 11  1  0  0  0  0
M  END
