1,2
 OpenBabel05122313053D

 30 32  0  0  0  0  0  0  0  0999 V2000
    1.2759   -1.2367    0.6235 N   0  0  0  0  0  2  0  0  0  0  0  0
    1.2758    1.2368   -0.6231 N   0  0  0  0  0  2  0  0  0  0  0  0
    2.6162   -1.1165    0.6207 C   0  0  0  0  0  0  0  0  0  0  0  0
    0.6849   -2.3482    1.3669 C   0  0  0  0  0  0  0  0  0  0  0  0
    2.6161    1.1164   -0.6207 C   0  0  0  0  0  0  0  0  0  0  0  0
    0.6848    2.3484   -1.3662 C   0  0  0  0  0  0  0  0  0  0  0  0
    3.4227   -2.1346    1.2688 C   0  0  0  0  0  0  0  0  0  0  0  0
    3.3166   -0.0000   -0.0000 C   0  0  0  0  0  0  0  0  0  0  0  0
    0.9600   -3.3460    0.9557 H   0  0  0  0  0  0  0  0  0  0  0  0
    0.9985   -2.3257    2.4331 H   0  0  0  0  0  0  0  0  0  0  0  0
   -0.4136   -2.2565    1.3444 H   0  0  0  0  0  0  0  0  0  0  0  0
    3.4225    2.1343   -1.2693 C   0  0  0  0  0  0  0  0  0  0  0  0
    0.9981    2.3260   -2.4326 H   0  0  0  0  0  0  0  0  0  0  0  0
    0.9601    3.3462   -0.9551 H   0  0  0  0  0  0  0  0  0  0  0  0
   -0.4138    2.2568   -1.3436 H   0  0  0  0  0  0  0  0  0  0  0  0
    4.7915   -2.1039    1.2742 C   0  0  0  0  0  0  0  0  0  0  0  0
    2.9179   -2.9706    1.7643 H   0  0  0  0  0  0  0  0  0  0  0  0
    4.7560    0.0000   -0.0001 C   0  0  0  0  0  0  0  0  0  0  0  0
    4.7913    2.1037   -1.2748 C   0  0  0  0  0  0  0  0  0  0  0  0
    2.9176    2.9701   -1.7651 H   0  0  0  0  0  0  0  0  0  0  0  0
    5.5116   -1.0496    0.6339 C   0  0  0  0  0  0  0  0  0  0  0  0
    5.3576   -2.9067    1.7729 H   0  0  0  0  0  0  0  0  0  0  0  0
    5.5115    1.0497   -0.6342 C   0  0  0  0  0  0  0  0  0  0  0  0
    5.3573    2.9064   -1.7737 H   0  0  0  0  0  0  0  0  0  0  0  0
    6.9241   -1.0314    0.6243 C   0  0  0  0  0  0  0  0  0  0  0  0
    6.9240    1.0316   -0.6244 C   0  0  0  0  0  3  0  0  0  0  0  0
    7.6345    0.0002    0.0000 C   0  0  0  0  0  0  0  0  0  0  0  0
    7.4606   -1.8538    1.1232 H   0  0  0  0  0  0  0  0  0  0  0  0
    7.4604    1.8541   -1.1232 H   0  0  0  0  0  0  0  0  0  0  0  0
    8.7344    0.0003    0.0001 H   0  0  0  0  0  0  0  0  0  0  0  0
  1  4  1  0  0  0  0
  2  5  1  0  0  0  0
  3  1  1  0  0  0  0
  3  7  1  0  0  0  0
  4 10  1  0  0  0  0
  5  8  1  0  0  0  0
  6 15  1  0  0  0  0
  6 14  1  0  0  0  0
  6  2  1  0  0  0  0
  7 16  2  0  0  0  0
  7 17  1  0  0  0  0
  8  3  2  0  0  0  0
  9  4  1  0  0  0  0
 11  4  1  0  0  0  0
 12  5  2  0  0  0  0
 13  6  1  0  0  0  0
 16 22  1  0  0  0  0
 18  8  1  0  0  0  0
 18 21  2  0  0  0  0
 19 12  1  0  0  0  0
 19 23  2  0  0  0  0
 20 12  1  0  0  0  0
 21 16  1  0  0  0  0
 23 26  1  0  0  0  0
 23 18  1  0  0  0  0
 24 19  1  0  0  0  0
 25 21  1  0  0  0  0
 25 28  1  0  0  0  0
 26 27  1  0  0  0  0
 27 30  1  0  0  0  0
 27 25  2  0  0  0  0
 29 26  1  0  0  0  0
M  END
