1,3
 OpenBabel05122313053D

 25 26  0  0  0  0  0  0  0  0999 V2000
   -1.0438    2.3423    0.0808 N   0  0  0  0  0  2  0  0  0  0  0  0
    0.0001    3.1326    0.0003 N   0  0  0  0  0  2  0  0  0  0  0  0
    1.0439    2.3423   -0.0804 N   0  0  0  0  0  2  0  0  0  0  0  0
   -2.3105    2.9078    0.1565 C   0  0  0  0  0  0  0  0  0  0  0  0
   -2.5536    4.3024    0.0512 C   0  0  0  0  0  0  0  0  0  0  0  0
   -1.6998    4.9766   -0.0989 H   0  0  0  0  0  0  0  0  0  0  0  0
   -3.8610    4.7919    0.1348 C   0  0  0  0  0  0  0  0  0  0  0  0
   -4.0364    5.8766    0.0497 H   0  0  0  0  0  0  0  0  0  0  0  0
   -4.9500    3.9197    0.3205 C   0  0  0  0  0  0  0  0  0  0  0  0
   -5.9758    4.3145    0.3814 H   0  0  0  0  0  0  0  0  0  0  0  0
   -4.7102    2.5383    0.4246 C   0  0  0  0  0  0  0  0  0  0  0  0
   -5.5504    1.8413    0.5702 H   0  0  0  0  0  0  0  0  0  0  0  0
   -3.4080    2.0327    0.3452 C   0  0  0  0  0  0  0  0  0  0  0  0
   -3.2040    0.9558    0.4317 H   0  0  0  0  0  0  0  0  0  0  0  0
    2.3106    2.9079   -0.1563 C   0  0  0  0  0  0  0  0  0  0  0  0
    2.5537    4.3025   -0.0512 C   0  0  0  0  0  0  0  0  0  0  0  0
    1.6998    4.9767    0.0991 H   0  0  0  0  0  0  0  0  0  0  0  0
    3.8610    4.7920   -0.1349 C   0  0  0  0  0  0  0  0  0  0  0  0
    4.0364    5.8767   -0.0499 H   0  0  0  0  0  0  0  0  0  0  0  0
    4.9501    3.9198   -0.3208 C   0  0  0  0  0  0  0  0  0  0  0  0
    5.9758    4.3146   -0.3818 H   0  0  0  0  0  0  0  0  0  0  0  0
    4.7102    2.5385   -0.4248 C   0  0  0  0  0  0  0  0  0  0  0  0
    5.5505    1.8415   -0.5704 H   0  0  0  0  0  0  0  0  0  0  0  0
    3.4081    2.0328   -0.3451 C   0  0  0  0  0  0  0  0  0  0  0  0
    3.2041    0.9559   -0.4316 H   0  0  0  0  0  0  0  0  0  0  0  0
  1  4  1  0  0  0  0
  2  1  1  0  0  0  0
  3  2  1  0  0  0  0
  4 13  1  0  0  0  0
  5  7  1  0  0  0  0
  5  4  2  0  0  0  0
  6  5  1  0  0  0  0
  7  9  2  0  0  0  0
  8  7  1  0  0  0  0
  9 10  1  0  0  0  0
  9 11  1  0  0  0  0
 11 12  1  0  0  0  0
 13 11  2  0  0  0  0
 13 14  1  0  0  0  0
 15  3  1  0  0  0  0
 15 16  1  0  0  0  0
 16 17  1  0  0  0  0
 18 16  2  0  0  0  0
 18 19  1  0  0  0  0
 20 18  1  0  0  0  0
 21 20  1  0  0  0  0
 22 24  1  0  0  0  0
 22 20  2  0  0  0  0
 23 22  1  0  0  0  0
 24 15  2  0  0  0  0
 25 24  1  0  0  0  0
M  END
