3,4
 OpenBabel05122313053D

 23 24  0  0  1  0  0  0  0  0999 V2000
   -0.5456    0.0178   -3.5179 O   0  0  0  0  0  0  0  0  0  0  0  0
   -2.7113   -1.1833   -1.6096 N   0  0  0  0  0  0  0  0  0  0  0  0
   -0.8245    0.1701   -1.2055 N   0  0  0  0  0  2  0  0  0  0  0  0
    1.6926   -0.1770   -0.7584 N   0  0  0  0  0  2  0  0  0  0  0  0
    1.3523   -0.1028   -2.0652 C   0  0  2  0  0  3  0  0  0  0  0  0
    3.9934   -0.4282   -1.3857 C   0  0  0  0  0  0  0  0  0  0  0  0
    5.0356   -0.5625   -1.0639 H   0  0  0  0  0  0  0  0  0  0  0  0
   -2.2298    0.0241   -1.2539 C   0  0  0  0  0  0  0  0  0  0  0  0
    2.9872   -0.3425   -0.4185 C   0  0  0  0  0  0  0  0  0  0  0  0
    3.2167   -0.4222    0.6511 H   0  0  0  0  0  0  0  0  0  0  0  0
   -0.1153    0.0289   -2.3603 C   0  0  0  0  0  0  0  0  0  0  0  0
   -3.0710    1.0934   -0.8757 C   0  0  0  0  0  0  0  0  0  0  0  0
   -2.5986    2.0527   -0.6153 H   0  0  0  0  0  0  0  0  0  0  0  0
    2.3034   -0.1942   -3.0876 C   0  0  0  0  0  0  0  0  0  0  0  0
    1.9302   -0.1369   -4.1204 H   0  0  0  0  0  0  0  0  0  0  0  0
    3.6492   -0.3545   -2.7458 C   0  0  0  0  0  0  0  0  0  0  0  0
    4.4244   -0.4256   -3.5235 H   0  0  0  0  0  0  0  0  0  0  0  0
   -4.0374   -1.3727   -1.5860 C   0  0  0  0  0  0  0  0  0  0  0  0
   -4.3899   -2.3786   -1.8759 H   0  0  0  0  0  0  0  0  0  0  0  0
   -4.9554   -0.3832   -1.1999 C   0  0  0  0  0  0  0  0  0  0  0  0
   -6.0339   -0.5991   -1.1832 H   0  0  0  0  0  0  0  0  0  0  0  0
   -4.4523    0.8773   -0.8410 C   0  0  0  0  0  0  0  0  0  0  0  0
   -5.1329    1.6887   -0.5385 H   0  0  0  0  0  0  0  0  0  0  0  0
  1 11  2  0  0  0  0
  2 18  2  0  0  0  0
  2  8  1  0  0  0  0
  4  9  1  0  0  0  0
  5 11  1  6  0  0  0
  5  4  1  0  0  0  0
  6  7  1  0  0  0  0
  6  9  2  0  0  0  0
  8  3  1  0  0  0  0
  8 12  2  0  0  0  0
  9 10  1  0  0  0  0
 11  3  1  0  0  0  0
 12 22  1  0  0  0  0
 12 13  1  0  0  0  0
 14 16  2  0  0  0  0
 14  5  1  0  0  0  0
 15 14  1  0  0  0  0
 16  6  1  0  0  0  0
 17 16  1  0  0  0  0
 18 20  1  0  0  0  0
 19 18  1  0  0  0  0
 20 21  1  0  0  0  0
 20 22  2  0  0  0  0
 22 23  1  0  0  0  0
M  END
