1,2
 OpenBabel05122313053D

 18 19  0  0  1  0  0  0  0  0999 V2000
   -2.1178    0.0000   -0.6147 N   0  0  0  0  0  2  0  0  0  0  0  0
   -0.8330   -0.0004    1.6093 N   0  0  0  0  0  2  0  0  0  0  0  0
   -0.3198   -0.0009    2.8511 N   0  0  0  0  0  0  0  0  0  0  0  0
    0.6937   -0.0007    2.9766 H   0  0  0  0  0  0  0  0  0  0  0  0
   -2.7013    0.0003   -1.8389 C   0  0  0  0  0  3  0  0  0  0  0  0
   -1.9934    0.0006   -2.6845 H   0  0  0  0  0  0  0  0  0  0  0  0
   -4.0893    0.0004   -2.0038 C   0  0  0  0  0  0  0  0  0  0  0  0
   -4.5086    0.0007   -3.0197 H   0  0  0  0  0  0  0  0  0  0  0  0
   -4.9207    0.0001   -0.8707 C   0  0  0  0  0  0  0  0  0  0  0  0
   -6.0154    0.0001   -0.9746 H   0  0  0  0  0  0  0  0  0  0  0  0
   -4.3289   -0.0002    0.3967 C   0  0  0  0  0  0  0  0  0  0  0  0
   -4.9394   -0.0005    1.3106 H   0  0  0  0  0  0  0  0  0  0  0  0
   -2.9278   -0.0003    0.5000 C   0  0  0  0  0  0  0  0  0  0  0  0
   -2.1862   -0.0006    1.7498 C   0  0  1  0  0  3  0  0  0  0  0  0
   -1.3034   -0.0014    3.8018 C   0  0  0  0  0  0  0  0  0  0  0  0
   -1.0635   -0.0018    4.8701 H   0  0  0  0  0  0  0  0  0  0  0  0
   -2.5209   -0.0012    3.1304 C   0  0  0  0  0  0  0  0  0  0  0  0
   -3.5174   -0.0015    3.5814 H   0  0  0  0  0  0  0  0  0  0  0  0
  1 13  1  0  0  0  0
  2 14  1  0  0  0  0
  2  3  1  0  0  0  0
  3  4  1  0  0  0  0
  3 15  1  0  0  0  0
  5  1  1  0  0  0  0
  6  5  1  0  0  0  0
  7  5  1  0  0  0  0
  7  9  2  0  0  0  0
  8  7  1  0  0  0  0
  9 11  1  0  0  0  0
 10  9  1  0  0  0  0
 11 13  2  0  0  0  0
 11 12  1  0  0  0  0
 14 13  1  6  0  0  0
 14 17  1  0  0  0  0
 15 16  1  0  0  0  0
 17 18  1  0  0  0  0
 17 15  2  0  0  0  0
M  END
