2,4
 OpenBabel05122313053D

 30 31  0  0  1  0  0  0  0  0999 V2000
    2.6955   -2.9658    0.5370 O   0  0  0  0  0  0  0  0  0  0  0  0
    2.0073    0.3448   -0.5691 N   0  0  0  0  0  2  0  0  0  0  0  0
    2.8130   -0.6753   -0.2264 C   0  0  0  0  0  0  0  0  0  0  0  0
    0.7588   -1.8884   -0.1559 N   0  0  0  0  0  2  0  0  0  0  0  0
    4.2413   -0.5355   -0.2572 C   0  0  0  0  0  0  0  0  0  0  0  0
    5.1355   -1.5718    0.1502 C   0  0  0  0  0  0  0  0  0  0  0  0
    4.6914   -2.5149    0.4956 H   0  0  0  0  0  0  0  0  0  0  0  0
    0.0116   -3.0955    0.1355 C   0  0  0  0  0  0  0  0  0  0  0  0
    0.7554   -3.8909    0.3708 H   0  0  0  0  0  0  0  0  0  0  0  0
   -0.5170   -3.4583   -0.7776 H   0  0  0  0  0  0  0  0  0  0  0  0
    6.5065   -1.3646    0.1041 C   0  0  0  0  0  0  0  0  0  0  0  0
    7.1870   -2.1679    0.4246 H   0  0  0  0  0  0  0  0  0  0  0  0
   -0.9718   -3.0259    1.2877 C   0  0  0  0  0  0  0  0  0  0  0  0
    3.8848    1.7261   -1.1429 C   0  0  0  0  0  0  0  0  0  0  0  0
    4.2609    2.6798   -1.5408 H   0  0  0  0  0  0  0  0  0  0  0  0
   -0.9478   -2.0407    2.2071 C   0  0  0  0  0  0  0  0  0  0  0  0
    2.0971   -1.9617    0.1108 C   0  0  0  0  0  0  0  0  0  0  0  0
    4.7909    0.7157   -0.7214 C   0  0  2  0  0  3  0  0  0  0  0  0
    6.2025    0.8911   -0.7593 C   0  0  0  0  0  0  0  0  0  0  0  0
    6.6090    1.8496   -1.1165 H   0  0  0  0  0  0  0  0  0  0  0  0
    2.5258    1.5115   -1.0482 C   0  0  0  0  0  0  0  0  0  0  0  0
    1.7983    2.2675   -1.3628 H   0  0  0  0  0  0  0  0  0  0  0  0
   -1.9381   -4.1787    1.3538 C   0  0  0  0  0  0  0  0  0  0  0  0
   -2.5913   -4.2057    0.4536 H   0  0  0  0  0  0  0  0  0  0  0  0
   -2.5881   -4.1213    2.2475 H   0  0  0  0  0  0  0  0  0  0  0  0
   -1.3992   -5.1508    1.3772 H   0  0  0  0  0  0  0  0  0  0  0  0
    7.0452   -0.1319   -0.3514 C   0  0  0  0  0  0  0  0  0  0  0  0
    8.1364    0.0096   -0.3816 H   0  0  0  0  0  0  0  0  0  0  0  0
   -0.2212   -1.2167    2.1353 H   0  0  0  0  0  0  0  0  0  0  0  0
   -1.6523   -2.0324    3.0532 H   0  0  0  0  0  0  0  0  0  0  0  0
  2  3  1  0  0  0  0
  3 17  1  0  0  0  0
  4 17  1  0  0  0  0
  4  8  1  0  0  0  0
  5  3  2  0  0  0  0
  5  6  1  0  0  0  0
  6  7  1  0  0  0  0
  8  9  1  0  0  0  0
  8 13  1  0  0  0  0
 10  8  1  0  0  0  0
 11  6  2  0  0  0  0
 11 12  1  0  0  0  0
 13 23  1  0  0  0  0
 13 16  2  0  0  0  0
 14 21  2  0  0  0  0
 15 14  1  0  0  0  0
 16 30  1  0  0  0  0
 17  1  2  0  0  0  0
 18 14  1  6  0  0  0
 18  5  1  0  0  0  0
 19 18  1  0  0  0  0
 19 27  2  0  0  0  0
 20 19  1  0  0  0  0
 21  2  1  0  0  0  0
 22 21  1  0  0  0  0
 23 26  1  0  0  0  0
 23 25  1  0  0  0  0
 24 23  1  0  0  0  0
 27 11  1  0  0  0  0
 28 27  1  0  0  0  0
 29 16  1  0  0  0  0
M  END
