1,11
 OpenBabel05122313053D

 17 16  0  0  1  0  0  0  0  0999 V2000
   -1.3519    1.3457   -0.2289 N   0  0  0  0  0  2  0  0  0  0  0  0
   -3.4197    2.2505    0.3285 N   0  0  0  0  0  0  0  0  0  0  0  0
   -1.2036    2.4882   -0.9306 O   0  0  0  0  0  0  0  0  0  0  0  0
   -2.4844    1.2471    0.4227 C   0  0  1  0  0  3  0  0  0  0  0  0
   -2.7848    0.0001    1.2104 C   0  0  0  0  0  0  0  0  0  0  0  0
   -0.0328    2.5856   -1.0104 H   0  0  0  0  0  0  0  0  0  0  0  0
   -3.0113    3.1008   -0.0807 H   0  0  0  0  0  0  0  0  0  0  0  0
   -4.0511    2.3806    1.1186 H   0  0  0  0  0  0  0  0  0  0  0  0
   -3.8623    0.0001    1.4678 H   0  0  0  0  0  0  0  0  0  0  0  0
   -2.2191    0.0003    2.1704 H   0  0  0  0  0  0  0  0  0  0  0  0
   -1.3518   -1.3458   -0.2284 N   0  0  0  0  0  2  0  0  0  0  0  0
   -2.4842   -1.2471    0.4232 C   0  0  2  0  0  3  0  0  0  0  0  0
   -1.2034   -2.4887   -0.9296 O   0  0  0  0  0  0  0  0  0  0  0  0
   -3.4193   -2.2507    0.3296 N   0  0  0  0  0  0  0  0  0  0  0  0
   -0.0335   -2.5855   -1.0104 H   0  0  0  0  0  0  0  0  0  0  0  0
   -3.0111   -3.1013   -0.0792 H   0  0  0  0  0  0  0  0  0  0  0  0
   -4.0512   -2.3802    1.1194 H   0  0  0  0  0  0  0  0  0  0  0  0
  2  4  1  0  0  0  0
  2  8  1  0  0  0  0
  3  1  1  0  0  0  0
  4  1  1  6  0  0  0
  4  5  1  0  0  0  0
  5  9  1  0  0  0  0
  5 10  1  0  0  0  0
  6  3  1  0  0  0  0
  7  2  1  0  0  0  0
 12 11  1  6  0  0  0
 12  5  1  0  0  0  0
 13 11  1  0  0  0  0
 14 12  1  0  0  0  0
 14 17  1  0  0  0  0
 15 13  1  0  0  0  0
 16 14  1  0  0  0  0
M  END
