1,4
 OpenBabel05122313053D

 33 35  0  0  1  0  0  0  0  0999 V2000
   -0.2711   -0.2579   -1.2189 N   0  0  0  0  0  2  0  0  0  0  0  0
    0.7476   -0.6308   -1.9415 N   0  0  0  0  0  2  0  0  0  0  0  0
    3.0545    0.0084   -2.3089 N   0  0  0  0  0  0  0  0  0  0  0  0
    1.7323    1.3751   -1.1231 N   0  0  0  0  0  2  0  0  0  0  0  0
   -2.6743   -0.4571   -1.2127 C   0  0  0  0  0  0  0  0  0  0  0  0
   -2.7374    0.6385   -1.1783 H   0  0  0  0  0  0  0  0  0  0  0  0
   -1.4155   -1.0588   -1.2802 C   0  0  0  0  0  0  0  0  0  0  0  0
   -1.3020   -2.4812   -1.4062 C   0  0  0  0  0  0  0  0  0  0  0  0
   -0.2965   -2.9194   -1.4679 H   0  0  0  0  0  0  0  0  0  0  0  0
   -2.4401   -3.2632   -1.4343 C   0  0  0  0  0  0  0  0  0  0  0  0
   -2.3539   -4.3583   -1.5152 H   0  0  0  0  0  0  0  0  0  0  0  0
   -3.7437   -2.6825   -1.3518 C   0  0  0  0  0  0  0  0  0  0  0  0
   -3.8541   -1.2463   -1.2457 C   0  0  0  0  0  0  0  0  0  0  0  0
   -4.9308   -3.4673   -1.3565 C   0  0  0  0  0  0  0  0  0  0  0  0
   -4.8414   -4.5623   -1.4330 H   0  0  0  0  0  0  0  0  0  0  0  0
   -6.1807   -2.8685   -1.2653 C   0  0  0  0  0  0  0  0  0  0  0  0
   -7.0903   -3.4878   -1.2693 H   0  0  0  0  0  0  0  0  0  0  0  0
   -6.2915   -1.4540   -1.1714 C   0  0  0  0  0  0  0  0  0  0  0  0
   -7.2870   -0.9892   -1.1060 H   0  0  0  0  0  0  0  0  0  0  0  0
   -5.1537   -0.6605   -1.1644 C   0  0  0  0  0  0  0  0  0  0  0  0
   -5.2317    0.4345   -1.0847 H   0  0  0  0  0  0  0  0  0  0  0  0
    1.7935    0.2086   -1.7978 C   0  0  1  0  0  3  0  0  0  0  0  0
    3.4924   -1.1813   -3.0349 C   0  0  0  0  0  0  0  0  0  0  0  0
    4.3200   -0.8684   -3.7028 H   0  0  0  0  0  0  0  0  0  0  0  0
    2.6439   -1.4897   -3.6774 H   0  0  0  0  0  0  0  0  0  0  0  0
    3.9175   -2.3261   -2.1186 C   0  0  0  0  0  0  0  0  0  0  0  0
    4.2232   -3.2010   -2.7261 H   0  0  0  0  0  0  0  0  0  0  0  0
    3.0792   -2.6341   -1.4638 H   0  0  0  0  0  0  0  0  0  0  0  0
    4.7681   -2.0366   -1.4709 H   0  0  0  0  0  0  0  0  0  0  0  0
    3.8259    1.0666   -1.8674 C   0  0  0  0  0  0  0  0  0  0  0  0
    4.8726    1.1751   -2.1709 H   0  0  0  0  0  0  0  0  0  0  0  0
    2.9904    1.8999   -1.1258 C   0  0  0  0  0  0  0  0  0  0  0  0
    3.2085    2.8651   -0.6550 H   0  0  0  0  0  0  0  0  0  0  0  0
  2  1  1  0  0  0  0
  3 30  1  0  0  0  0
  3 22  1  0  0  0  0
  5  6  1  0  0  0  0
  7  1  1  0  0  0  0
  7  5  2  0  0  0  0
  8  7  1  0  0  0  0
  9  8  1  0  0  0  0
 10  8  2  0  0  0  0
 10 12  1  0  0  0  0
 11 10  1  0  0  0  0
 12 13  1  0  0  0  0
 13  5  1  0  0  0  0
 13 20  2  0  0  0  0
 14 12  2  0  0  0  0
 14 16  1  0  0  0  0
 15 14  1  0  0  0  0
 16 18  2  0  0  0  0
 17 16  1  0  0  0  0
 18 20  1  0  0  0  0
 18 19  1  0  0  0  0
 20 21  1  0  0  0  0
 22  2  1  6  0  0  0
 22  4  1  0  0  0  0
 23  3  1  0  0  0  0
 23 26  1  0  0  0  0
 24 23  1  0  0  0  0
 25 23  1  0  0  0  0
 26 29  1  0  0  0  0
 26 28  1  0  0  0  0
 27 26  1  0  0  0  0
 30 32  2  0  0  0  0
 31 30  1  0  0  0  0
 32  4  1  0  0  0  0
 32 33  1  0  0  0  0
M  END
