2,3
 OpenBabel05122313053D

 39 41  0  0  1  0  0  0  0  0999 V2000
    1.7209   -0.6619   -0.4709 O   0  0  0  0  0  0  0  0  0  0  0  0
   -2.4667   -1.1035   -0.3021 N   0  0  0  0  0  2  0  0  0  0  0  0
   -0.5488    0.6142   -0.7181 N   0  0  0  0  0  2  0  0  0  0  0  0
    0.5701    1.3133   -0.7441 N   0  0  0  0  0  0  0  0  0  0  0  0
   -0.9333    3.4417   -0.6169 N   0  0  0  0  0  0  0  0  0  0  0  0
    2.8809    1.3375   -0.6484 N   0  0  0  0  0  0  0  0  0  0  0  0
   -3.3490   -2.1098   -0.3500 C   0  0  0  0  0  3  0  0  0  0  0  0
   -2.9423   -3.1003   -0.0794 H   0  0  0  0  0  0  0  0  0  0  0  0
   -4.6797   -1.9162   -0.7497 C   0  0  0  0  0  0  0  0  0  0  0  0
   -5.3807   -2.7626   -0.7662 H   0  0  0  0  0  0  0  0  0  0  0  0
   -5.0721   -0.6312   -1.1485 C   0  0  0  0  0  0  0  0  0  0  0  0
   -6.0961   -0.4434   -1.5056 H   0  0  0  0  0  0  0  0  0  0  0  0
   -4.1405    0.4156   -1.1120 C   0  0  0  0  0  0  0  0  0  0  0  0
   -4.4148    1.4174   -1.4699 H   0  0  0  0  0  0  0  0  0  0  0  0
   -2.8325    0.1505   -0.6573 C   0  0  0  0  0  0  0  0  0  0  0  0
   -1.7418    1.1616   -0.6177 C   0  0  1  0  0  3  0  0  0  0  0  0
   -1.9689    2.5959   -0.3562 C   0  0  0  0  0  0  0  0  0  0  0  0
   -3.1599    3.0778    0.2417 C   0  0  0  0  0  0  0  0  0  0  0  0
   -3.9579    2.3793    0.5234 H   0  0  0  0  0  0  0  0  0  0  0  0
   -3.2859    4.4424    0.5136 C   0  0  0  0  0  0  0  0  0  0  0  0
   -4.2028    4.8276    0.9845 H   0  0  0  0  0  0  0  0  0  0  0  0
   -2.2268    5.3078    0.1976 C   0  0  0  0  0  0  0  0  0  0  0  0
   -2.2880    6.3881    0.3916 H   0  0  0  0  0  0  0  0  0  0  0  0
   -1.0644    4.7488   -0.3487 C   0  0  0  0  0  0  0  0  0  0  0  0
   -0.1906    5.3830   -0.5767 H   0  0  0  0  0  0  0  0  0  0  0  0
    1.7549    0.5612   -0.6065 C   0  0  0  0  0  0  0  0  0  0  0  0
    4.2233    0.9360   -0.4882 C   0  0  0  0  0  0  0  0  0  0  0  0
    5.2121    1.9396   -0.5849 C   0  0  0  0  0  0  0  0  0  0  0  0
    4.9140    2.9830   -0.7802 H   0  0  0  0  0  0  0  0  0  0  0  0
    6.5648    1.6160   -0.4322 C   0  0  0  0  0  0  0  0  0  0  0  0
    7.3228    2.4098   -0.5097 H   0  0  0  0  0  0  0  0  0  0  0  0
    6.9493    0.2893   -0.1813 C   0  0  0  0  0  0  0  0  0  0  0  0
    8.0121    0.0330   -0.0605 H   0  0  0  0  0  0  0  0  0  0  0  0
    5.9633   -0.7048   -0.0857 C   0  0  0  0  0  0  0  0  0  0  0  0
    6.2514   -1.7482    0.1123 H   0  0  0  0  0  0  0  0  0  0  0  0
    4.6035   -0.4002   -0.2370 C   0  0  0  0  0  0  0  0  0  0  0  0
    3.8348   -1.1779   -0.1617 H   0  0  0  0  0  0  0  0  0  0  0  0
    0.4414    2.3621   -0.7323 H   0  0  0  0  0  0  0  0  0  0  0  0
    2.7429    2.3379   -0.8045 H   0  0  0  0  0  0  0  0  0  0  0  0
  4 38  1  0  0  0  0
  4  3  1  0  0  0  0
  4 26  1  0  0  0  0
  5 17  2  0  0  0  0
  5 24  1  0  0  0  0
  6 26  1  0  0  0  0
  6 27  1  0  0  0  0
  7  2  1  0  0  0  0
  7  8  1  0  0  0  0
  9  7  1  0  0  0  0
 10  9  1  0  0  0  0
 11 13  1  0  0  0  0
 11  9  2  0  0  0  0
 12 11  1  0  0  0  0
 13 15  2  0  0  0  0
 14 13  1  0  0  0  0
 15 16  1  0  0  0  0
 15  2  1  0  0  0  0
 16  3  1  1  0  0  0
 16 17  1  0  0  0  0
 17 18  1  0  0  0  0
 18 20  2  0  0  0  0
 18 19  1  0  0  0  0
 20 21  1  0  0  0  0
 22 23  1  0  0  0  0
 22 20  1  0  0  0  0
 24 22  2  0  0  0  0
 25 24  1  0  0  0  0
 26  1  2  0  0  0  0
 27 36  1  0  0  0  0
 28 27  2  0  0  0  0
 28 30  1  0  0  0  0
 29 28  1  0  0  0  0
 30 32  2  0  0  0  0
 31 30  1  0  0  0  0
 32 34  1  0  0  0  0
 32 33  1  0  0  0  0
 34 35  1  0  0  0  0
 36 37  1  0  0  0  0
 36 34  2  0  0  0  0
 39  6  1  0  0  0  0
M  END
