1,2
 OpenBabel05122313053D

 40 39  0  0  0  0  0  0  0  0999 V2000
   -1.0901    1.1077   -0.0361 N   0  0  0  0  0  2  0  0  0  0  0  0
    1.5684    0.5639    0.1576 N   0  0  0  0  0  0  0  0  0  0  0  0
   -0.2790    2.0936   -0.2566 C   0  0  0  0  0  3  0  0  0  0  0  0
   -0.6221    3.1401   -0.2174 H   0  0  0  0  0  0  0  0  0  0  0  0
    1.1666    1.8347   -0.6121 C   0  0  0  0  0  0  0  0  0  0  0  0
    1.2347    1.5798   -2.1317 C   0  0  0  0  0  0  0  0  0  0  0  0
    0.7236    2.4060   -2.6633 H   0  0  0  0  0  0  0  0  0  0  0  0
    0.7203    0.6300   -2.3827 H   0  0  0  0  0  0  0  0  0  0  0  0
    2.2811    1.5464   -2.4917 H   0  0  0  0  0  0  0  0  0  0  0  0
    1.9801    3.0970   -0.2587 C   0  0  0  0  0  0  0  0  0  0  0  0
    1.6208    3.9331   -0.8906 H   0  0  0  0  0  0  0  0  0  0  0  0
    3.0567    2.9686   -0.4614 H   0  0  0  0  0  0  0  0  0  0  0  0
    1.8536    3.4039    0.7966 H   0  0  0  0  0  0  0  0  0  0  0  0
    2.7952   -0.1210   -0.3696 C   0  0  0  0  0  0  0  0  0  0  0  0
    2.5941   -0.3757   -1.4247 H   0  0  0  0  0  0  0  0  0  0  0  0
    2.8135   -1.1034    0.1378 H   0  0  0  0  0  0  0  0  0  0  0  0
    4.1427    0.5826   -0.2260 C   0  0  0  0  0  0  0  0  0  0  0  0
    4.9334   -0.1452   -0.4970 H   0  0  0  0  0  0  0  0  0  0  0  0
    4.3537    0.9128    0.8106 H   0  0  0  0  0  0  0  0  0  0  0  0
    4.2664    1.4539   -0.8983 H   0  0  0  0  0  0  0  0  0  0  0  0
    1.6966    0.8622    1.6246 C   0  0  0  0  0  0  0  0  0  0  0  0
    2.5249    1.5868    1.7743 H   0  0  0  0  0  0  0  0  0  0  0  0
    0.7614    1.3779    1.9198 H   0  0  0  0  0  0  0  0  0  0  0  0
    1.9163   -0.3574    2.5079 C   0  0  0  0  0  0  0  0  0  0  0  0
    1.8764   -0.0387    3.5684 H   0  0  0  0  0  0  0  0  0  0  0  0
    2.9028   -0.8307    2.3383 H   0  0  0  0  0  0  0  0  0  0  0  0
    1.1378   -1.1252    2.3314 H   0  0  0  0  0  0  0  0  0  0  0  0
   -2.5313    1.3915    0.3141 C   0  0  0  0  0  0  0  0  0  0  0  0
   -2.7694    2.8753    0.6431 C   0  0  0  0  0  0  0  0  0  0  0  0
   -2.6146    3.5419   -0.2294 H   0  0  0  0  0  0  0  0  0  0  0  0
   -2.1353    3.2259    1.4832 H   0  0  0  0  0  0  0  0  0  0  0  0
   -3.8256    2.9933    0.9514 H   0  0  0  0  0  0  0  0  0  0  0  0
   -3.3828    0.9994   -0.9067 C   0  0  0  0  0  0  0  0  0  0  0  0
   -3.2416   -0.0711   -1.1482 H   0  0  0  0  0  0  0  0  0  0  0  0
   -3.1044    1.6152   -1.7859 H   0  0  0  0  0  0  0  0  0  0  0  0
   -4.4523    1.1794   -0.6789 H   0  0  0  0  0  0  0  0  0  0  0  0
   -2.8817    0.5467    1.5506 C   0  0  0  0  0  0  0  0  0  0  0  0
   -2.7812   -0.5320    1.3276 H   0  0  0  0  0  0  0  0  0  0  0  0
   -3.9276    0.7559    1.8505 H   0  0  0  0  0  0  0  0  0  0  0  0
   -2.2174    0.8036    2.4007 H   0  0  0  0  0  0  0  0  0  0  0  0
  1 28  1  0  0  0  0
  2 21  1  0  0  0  0
  3  4  1  0  0  0  0
  3  1  1  0  0  0  0
  5 10  1  0  0  0  0
  5  3  1  0  0  0  0
  5  2  1  0  0  0  0
  6  5  1  0  0  0  0
  7  6  1  0  0  0  0
  8  6  1  0  0  0  0
  9  6  1  0  0  0  0
 10 13  1  0  0  0  0
 11 10  1  0  0  0  0
 12 10  1  0  0  0  0
 14 17  1  0  0  0  0
 14 16  1  0  0  0  0
 14  2  1  0  0  0  0
 15 14  1  0  0  0  0
 17 19  1  0  0  0  0
 18 17  1  0  0  0  0
 20 17  1  0  0  0  0
 21 22  1  0  0  0  0
 21 23  1  0  0  0  0
 21 24  1  0  0  0  0
 24 25  1  0  0  0  0
 26 24  1  0  0  0  0
 27 24  1  0  0  0  0
 28 29  1  0  0  0  0
 28 37  1  0  0  0  0
 29 32  1  0  0  0  0
 29 31  1  0  0  0  0
 30 29  1  0  0  0  0
 33 36  1  0  0  0  0
 33 28  1  0  0  0  0
 34 33  1  0  0  0  0
 35 33  1  0  0  0  0
 37 39  1  0  0  0  0
 37 40  1  0  0  0  0
 38 37  1  0  0  0  0
M  END
