1,2
 OpenBabel05122313053D

 21 22  0  0  1  0  0  0  0  0999 V2000
   -1.6576    0.7741   -1.2021 N   0  0  0  0  0  2  0  0  0  0  0  0
    0.2699    2.1569    0.1049 N   0  0  0  0  0  2  0  0  0  0  0  0
   -5.9763   -0.9520    1.1154 O   0  5  0  0  0  0  0  0  0  0  0  0
   -2.7911    0.1386   -1.4155 N   0  0  0  0  0  2  0  0  0  0  0  0
   -3.7028   -0.9509    0.9720 O   0  0  0  0  0  0  0  0  0  0  0  0
   -3.7475    0.9446   -0.9541 N   0  0  0  0  0  0  0  0  0  0  0  0
   -0.8903    2.8254   -0.1139 C   0  0  2  0  0  3  0  0  0  0  0  0
   -1.9721    1.9573   -0.5921 C   0  0  0  0  0  0  0  0  0  0  0  0
   -3.2896    2.0920   -0.4338 N   0  0  0  0  0  0  0  0  0  0  0  0
    1.3792    2.8335    0.4434 C   0  0  0  0  0  0  0  0  0  0  0  0
    2.3028    2.2375    0.5404 H   0  0  0  0  0  0  0  0  0  0  0  0
   -1.0006    4.2102    0.0750 C   0  0  0  0  0  0  0  0  0  0  0  0
   -1.9627    4.7109   -0.1011 H   0  0  0  0  0  0  0  0  0  0  0  0
    1.3570    4.2242    0.6348 C   0  0  0  0  0  0  0  0  0  0  0  0
    2.2810    4.7498    0.9137 H   0  0  0  0  0  0  0  0  0  0  0  0
    0.1471    4.9142    0.4683 C   0  0  0  0  0  0  0  0  0  0  0  0
    0.0995    6.0021    0.6260 H   0  0  0  0  0  0  0  0  0  0  0  0
   -5.0289    0.3833   -0.6018 C   0  0  0  0  0  0  0  0  0  0  0  0
   -5.7255    1.2054   -0.3679 H   0  0  0  0  0  0  0  0  0  0  0  0
   -5.4058   -0.2124   -1.4531 H   0  0  0  0  0  0  0  0  0  0  0  0
   -4.8903   -0.6074    0.6581 C   0  0  0  0  0  0  0  0  0  0  0  0
  1  8  1  0  0  0  0
  2 10  1  0  0  0  0
  4  1  1  0  0  0  0
  4  6  1  0  0  0  0
  6 18  1  0  0  0  0
  6  9  1  0  0  0  0
  7  8  1  6  0  0  0
  7 12  1  0  0  0  0
  7  2  1  0  0  0  0
  8  9  2  0  0  0  0
 10 11  1  0  0  0  0
 10 14  2  0  0  0  0
 12 16  2  0  0  0  0
 13 12  1  0  0  0  0
 14 15  1  0  0  0  0
 16 17  1  0  0  0  0
 16 14  1  0  0  0  0
 18 19  1  0  0  0  0
 18 21  1  0  0  0  0
 20 18  1  0  0  0  0
 21  5  2  0  0  0  0
 21  3  1  0  0  0  0
M  CHG  1   3  -1
M  END
