1,3
 OpenBabel05122313053D

 45 46  0  0  1  0  0  0  0  0999 V2000
   -0.7551    1.7471   -0.4625 N   0  0  0  0  0  2  0  0  0  0  0  0
    1.5451    0.2294    0.4760 N   0  0  0  0  0  0  0  0  0  0  0  0
    0.5877   -0.5191   -0.1338 N   0  0  0  0  0  2  0  0  0  0  0  0
   -1.4388    2.4574   -1.3902 C   0  0  0  0  0  3  0  0  0  0  0  0
   -2.3227    1.9541   -1.8094 H   0  0  0  0  0  0  0  0  0  0  0  0
   -1.0702    3.7584   -1.7449 C   0  0  0  0  0  0  0  0  0  0  0  0
   -1.6510    4.2926   -2.5102 H   0  0  0  0  0  0  0  0  0  0  0  0
    0.0270    4.3578   -1.1099 C   0  0  0  0  0  0  0  0  0  0  0  0
    0.3315    5.3853   -1.3573 H   0  0  0  0  0  0  0  0  0  0  0  0
    0.7324    3.6169   -0.1503 C   0  0  0  0  0  0  0  0  0  0  0  0
    1.5967    4.0482    0.3754 H   0  0  0  0  0  0  0  0  0  0  0  0
    0.3251    2.3102    0.1470 C   0  0  0  0  0  0  0  0  0  0  0  0
    1.0517    1.4292    1.1417 C   0  0  0  0  0  0  0  0  0  0  0  0
    1.8990    1.9657    1.5968 H   0  0  0  0  0  0  0  0  0  0  0  0
    0.3522    1.1082    1.9455 H   0  0  0  0  0  0  0  0  0  0  0  0
    4.3050    1.8261    0.1302 C   0  0  0  0  0  0  0  0  0  0  0  0
    4.2782    1.8389   -0.9775 H   0  0  0  0  0  0  0  0  0  0  0  0
    5.2883    2.2210    0.4573 H   0  0  0  0  0  0  0  0  0  0  0  0
    3.5309    2.5298    0.4918 H   0  0  0  0  0  0  0  0  0  0  0  0
    5.2783   -0.4742    0.1564 C   0  0  0  0  0  0  0  0  0  0  0  0
    5.1947   -1.5202    0.5111 H   0  0  0  0  0  0  0  0  0  0  0  0
    6.2367   -0.0627    0.5302 H   0  0  0  0  0  0  0  0  0  0  0  0
    5.3229   -0.4839   -0.9506 H   0  0  0  0  0  0  0  0  0  0  0  0
    4.1381    0.3741    2.2140 C   0  0  0  0  0  0  0  0  0  0  0  0
    3.3484    1.0046    2.6675 H   0  0  0  0  0  0  0  0  0  0  0  0
    5.1142    0.7553    2.5767 H   0  0  0  0  0  0  0  0  0  0  0  0
    4.0038   -0.6560    2.5991 H   0  0  0  0  0  0  0  0  0  0  0  0
    4.1074    0.3889    0.6678 C   0  0  0  0  0  0  0  0  0  0  0  0
    2.8074   -0.2097    0.1534 C   0  0  1  0  0  3  0  0  0  0  0  0
    2.6098   -1.3005   -0.6975 C   0  0  0  0  0  0  0  0  0  0  0  0
    3.3910   -1.9163   -1.1481 H   0  0  0  0  0  0  0  0  0  0  0  0
    1.2107   -1.4609   -0.8694 C   0  0  0  0  0  0  0  0  0  0  0  0
    0.4874   -2.4949   -1.7162 C   0  0  0  0  0  0  0  0  0  0  0  0
    0.3160   -3.7918   -0.8904 C   0  0  0  0  0  0  0  0  0  0  0  0
    1.3007   -4.1910   -0.5724 H   0  0  0  0  0  0  0  0  0  0  0  0
   -0.1893   -4.5658   -1.5042 H   0  0  0  0  0  0  0  0  0  0  0  0
   -0.2936   -3.5972    0.0140 H   0  0  0  0  0  0  0  0  0  0  0  0
   -0.8914   -1.9760   -2.1666 C   0  0  0  0  0  0  0  0  0  0  0  0
   -1.5647   -1.7956   -1.3031 H   0  0  0  0  0  0  0  0  0  0  0  0
   -1.3791   -2.7295   -2.8175 H   0  0  0  0  0  0  0  0  0  0  0  0
   -0.8000   -1.0324   -2.7421 H   0  0  0  0  0  0  0  0  0  0  0  0
    1.3418   -2.7946   -2.9662 C   0  0  0  0  0  0  0  0  0  0  0  0
    1.5251   -1.8784   -3.5636 H   0  0  0  0  0  0  0  0  0  0  0  0
    0.8147   -3.5262   -3.6108 H   0  0  0  0  0  0  0  0  0  0  0  0
    2.3230   -3.2376   -2.7013 H   0  0  0  0  0  0  0  0  0  0  0  0
  1 12  1  0  0  0  0
  2 13  1  0  0  0  0
  3  2  1  0  0  0  0
  4  1  1  0  0  0  0
  5  4  1  0  0  0  0
  6  4  1  0  0  0  0
  6  8  2  0  0  0  0
  7  6  1  0  0  0  0
  8 10  1  0  0  0  0
  9  8  1  0  0  0  0
 10 12  2  0  0  0  0
 10 11  1  0  0  0  0
 12 13  1  0  0  0  0
 13 14  1  0  0  0  0
 13 15  1  0  0  0  0
 16 18  1  0  0  0  0
 16 19  1  0  0  0  0
 16 28  1  0  0  0  0
 17 16  1  0  0  0  0
 20 21  1  0  0  0  0
 20 22  1  0  0  0  0
 20 28  1  0  0  0  0
 23 20  1  0  0  0  0
 24 26  1  0  0  0  0
 24 27  1  0  0  0  0
 24 25  1  0  0  0  0
 28 24  1  0  0  0  0
 29  2  1  0  0  0  0
 29 28  1  1  0  0  0
 30 29  1  0  0  0  0
 31 30  1  0  0  0  0
 32 30  2  0  0  0  0
 32  3  1  0  0  0  0
 33 34  1  0  0  0  0
 33 32  1  0  0  0  0
 34 35  1  0  0  0  0
 34 37  1  0  0  0  0
 36 34  1  0  0  0  0
 38 33  1  0  0  0  0
 38 39  1  0  0  0  0
 40 38  1  0  0  0  0
 41 38  1  0  0  0  0
 42 45  1  0  0  0  0
 42 33  1  0  0  0  0
 43 42  1  0  0  0  0
 44 42  1  0  0  0  0
M  END
