3,8
 OpenBabel05122313053D

 29 29  0  0  1  0  0  0  0  0999 V2000
   -1.6651   -1.2105   -0.3518 O   0  0  0  0  0  0  0  0  0  0  0  0
   -3.8586   -0.6624   -0.2613 N   0  0  0  0  0  0  0  0  0  0  0  0
   -2.1733    0.9809    0.1591 N   0  0  0  0  0  2  0  0  0  0  0  0
   -2.9061    1.6927    0.1824 H   0  0  0  0  0  0  0  0  0  0  0  0
    0.2167   -2.8960    0.1710 N   0  0  0  0  0  0  0  0  0  0  0  0
   -0.7320   -3.0717    0.5000 H   0  0  0  0  0  0  0  0  0  0  0  0
    0.9545   -3.5537    0.4106 H   0  0  0  0  0  0  0  0  0  0  0  0
   -0.3396   -0.7115   -0.5096 N   0  0  0  0  0  2  0  0  0  0  0  0
   -4.2085   -1.8952   -0.9522 C   0  0  0  0  0  0  0  0  0  0  0  0
   -4.8269   -1.6792   -1.8510 H   0  0  0  0  0  0  0  0  0  0  0  0
   -4.7883   -2.5698   -0.2864 H   0  0  0  0  0  0  0  0  0  0  0  0
   -3.2929   -2.4167   -1.2765 H   0  0  0  0  0  0  0  0  0  0  0  0
    0.5424   -1.6474   -0.2323 C   0  0  1  0  0  3  0  0  0  0  0  0
    4.2696   -1.3842    0.3958 C   0  0  0  0  0  0  0  0  0  0  0  0
    5.0249   -1.8143    1.0703 H   0  0  0  0  0  0  0  0  0  0  0  0
    1.9610   -1.2494   -0.3667 C   0  0  0  0  0  0  0  0  0  0  0  0
    2.9384   -1.8064    0.4849 C   0  0  0  0  0  0  0  0  0  0  0  0
    2.6505   -2.5318    1.2611 H   0  0  0  0  0  0  0  0  0  0  0  0
   -2.5729   -0.2139   -0.1460 C   0  0  1  0  0  3  0  0  0  0  0  0
    2.3267   -0.2464   -1.2893 C   0  0  0  0  0  0  0  0  0  0  0  0
    1.5610    0.2237   -1.9219 H   0  0  0  0  0  0  0  0  0  0  0  0
    3.6562    0.1868   -1.3561 C   0  0  0  0  0  0  0  0  0  0  0  0
    3.9226    0.9916   -2.0566 H   0  0  0  0  0  0  0  0  0  0  0  0
   -4.9463    0.2191    0.1206 C   0  0  0  0  0  0  0  0  0  0  0  0
   -5.2328    0.9264   -0.6917 H   0  0  0  0  0  0  0  0  0  0  0  0
   -4.6712    0.8023    1.0218 H   0  0  0  0  0  0  0  0  0  0  0  0
   -5.8347   -0.3916    0.3728 H   0  0  0  0  0  0  0  0  0  0  0  0
    4.6307   -0.3869   -0.5254 C   0  0  0  0  0  0  0  0  0  0  0  0
    5.6751   -0.0442   -0.5820 H   0  0  0  0  0  0  0  0  0  0  0  0
  2 19  1  0  0  0  0
  2 24  1  0  0  0  0
  3  4  1  0  0  0  0
  5  7  1  0  0  0  0
  5  6  1  0  0  0  0
  8  1  1  0  0  0  0
  9 11  1  0  0  0  0
  9  2  1  0  0  0  0
 10  9  1  0  0  0  0
 12  9  1  0  0  0  0
 13  8  1  1  0  0  0
 13  5  1  0  0  0  0
 14 17  1  0  0  0  0
 14 15  1  0  0  0  0
 16 13  1  0  0  0  0
 16 17  2  0  0  0  0
 17 18  1  0  0  0  0
 19  1  1  1  0  0  0
 19  3  1  0  0  0  0
 20 16  1  0  0  0  0
 21 20  1  0  0  0  0
 22 20  2  0  0  0  0
 22 28  1  0  0  0  0
 23 22  1  0  0  0  0
 24 27  1  0  0  0  0
 24 26  1  0  0  0  0
 25 24  1  0  0  0  0
 28 14  2  0  0  0  0
 29 28  1  0  0  0  0
M  END
