1,7
 OpenBabel05122313053D

 16 17  0  0  1  0  0  0  0  0999 V2000
   -1.0156   -0.0282    1.7295 N   0  0  0  0  0  2  0  0  0  0  0  0
   -0.2658    0.1437    3.2532 S   0  0  0  0  0  0  0  0  0  0  0  0
   -2.2108    0.2216    4.2520 S   0  0  0  0  0  0  0  0  0  0  0  0
   -3.0920    0.1904    2.8509 N   0  0  0  0  0  0  0  0  0  0  0  0
   -2.4019    0.0855    1.7435 C   0  0  0  0  0  0  0  0  0  0  0  0
   -2.9514    0.1435    0.3866 C   0  0  2  0  0  3  0  0  0  0  0  0
   -1.9623    0.2095   -0.5638 N   0  0  0  0  0  2  0  0  0  0  0  0
   -2.3276    0.2169   -1.8710 C   0  0  0  0  0  0  0  0  0  0  0  0
   -1.5024    0.2225   -2.5980 H   0  0  0  0  0  0  0  0  0  0  0  0
   -3.6610    0.2149   -2.2679 C   0  0  0  0  0  0  0  0  0  0  0  0
   -3.9125    0.2333   -3.3369 H   0  0  0  0  0  0  0  0  0  0  0  0
   -4.6880    0.1824   -1.2872 C   0  0  0  0  0  0  0  0  0  0  0  0
   -4.3097    0.1374    0.0722 C   0  0  0  0  0  0  0  0  0  0  0  0
   -5.0532    0.0912    0.8793 H   0  0  0  0  0  0  0  0  0  0  0  0
   -6.0670    0.1815   -1.6650 C   0  0  0  0  0  0  0  0  0  0  0  0
   -7.1989    0.1832   -1.9792 N   0  0  0  0  0  0  0  0  0  0  0  0
  1  5  1  0  0  0  0
  1  2  1  0  0  0  0
  2  3  1  0  0  0  0
  4  3  1  0  0  0  0
  5  4  2  0  0  0  0
  6  5  1  1  0  0  0
  7  6  1  0  0  0  0
  8  7  1  0  0  0  0
  9  8  1  0  0  0  0
 10  8  2  0  0  0  0
 10 12  1  0  0  0  0
 11 10  1  0  0  0  0
 12 13  2  0  0  0  0
 13  6  1  0  0  0  0
 13 14  1  0  0  0  0
 15 12  1  0  0  0  0
 16 15  3  0  0  0  0
M  END
