1,2
 OpenBabel05122313053D

 42 44  0  0  0  0  0  0  0  0999 V2000
    1.4531    0.6152   -0.3103 N   0  0  0  0  0  2  0  0  0  0  0  0
   -1.2372    0.9981   -0.1322 N   0  0  0  0  0  2  0  0  0  0  0  0
    3.0451   -0.9236   -0.5868 O   0  0  0  0  0  0  0  0  0  0  0  0
   -3.2037   -0.0451   -0.1037 O   0  0  0  0  0  0  0  0  0  0  0  0
    2.7588    0.3623   -0.3418 C   0  0  0  0  0  0  0  0  0  0  0  0
    3.7227    1.4007   -0.1565 C   0  0  0  0  0  0  0  0  0  0  0  0
    4.7981    1.1828   -0.1726 H   0  0  0  0  0  0  0  0  0  0  0  0
    3.2691    2.6967    0.0358 C   0  0  0  0  0  0  0  0  0  0  0  0
    3.9916    3.5164    0.1714 H   0  0  0  0  0  0  0  0  0  0  0  0
    1.8761    2.9839    0.0710 C   0  0  0  0  0  0  0  0  0  0  0  0
    1.3295    4.2942    0.2874 C   0  0  0  0  0  0  0  0  0  0  0  0
    2.0226    5.1407    0.4068 H   0  0  0  0  0  0  0  0  0  0  0  0
   -0.0321    4.4906    0.3548 C   0  0  0  0  0  0  0  0  0  0  0  0
   -0.4435    5.4967    0.5272 H   0  0  0  0  0  0  0  0  0  0  0  0
   -0.9431    3.3889    0.2186 C   0  0  0  0  0  0  0  0  0  0  0  0
   -2.3573    3.5057    0.3208 C   0  0  0  0  0  0  0  0  0  0  0  0
   -2.8043    4.4974    0.4910 H   0  0  0  0  0  0  0  0  0  0  0  0
   -3.1728    2.3878    0.2168 C   0  0  0  0  0  0  0  0  0  0  0  0
   -4.2637    2.4779    0.2974 H   0  0  0  0  0  0  0  0  0  0  0  0
   -2.5557    1.1192   -0.0036 C   0  0  0  0  0  0  0  0  0  0  0  0
   -0.4340    2.0759   -0.0184 C   0  0  0  0  0  0  0  0  0  0  0  0
    1.0002    1.8707   -0.1032 C   0  0  0  0  0  0  0  0  0  0  0  0
    4.3653   -1.4490   -0.3593 C   0  0  0  0  0  0  0  0  0  0  0  0
    5.1276   -0.7840   -0.8205 H   0  0  0  0  0  0  0  0  0  0  0  0
    4.3701   -2.4021   -0.9237 H   0  0  0  0  0  0  0  0  0  0  0  0
    4.6328   -1.6942    1.1226 C   0  0  0  0  0  0  0  0  0  0  0  0
    4.6061   -0.7218    1.6630 H   0  0  0  0  0  0  0  0  0  0  0  0
    5.6813   -2.0563    1.2061 H   0  0  0  0  0  0  0  0  0  0  0  0
    3.6624   -2.6885    1.7628 C   0  0  0  0  0  0  0  0  0  0  0  0
    2.6067   -2.3532    1.6958 H   0  0  0  0  0  0  0  0  0  0  0  0
    3.8997   -2.8359    2.8348 H   0  0  0  0  0  0  0  0  0  0  0  0
    3.7249   -3.6790    1.2660 H   0  0  0  0  0  0  0  0  0  0  0  0
   -4.6078   -0.1513    0.1792 C   0  0  0  0  0  0  0  0  0  0  0  0
   -5.1841    0.3312   -0.6418 H   0  0  0  0  0  0  0  0  0  0  0  0
   -4.8329    0.3833    1.1301 H   0  0  0  0  0  0  0  0  0  0  0  0
   -4.9342   -1.6319    0.3009 C   0  0  0  0  0  0  0  0  0  0  0  0
   -6.0384   -1.7174    0.3936 H   0  0  0  0  0  0  0  0  0  0  0  0
   -4.6611   -2.1238   -0.6570 H   0  0  0  0  0  0  0  0  0  0  0  0
   -4.2326   -2.3173    1.4749 C   0  0  0  0  0  0  0  0  0  0  0  0
   -3.1283   -2.2439    1.3996 H   0  0  0  0  0  0  0  0  0  0  0  0
   -4.4940   -3.3929    1.5160 H   0  0  0  0  0  0  0  0  0  0  0  0
   -4.5340   -1.8625    2.4422 H   0  0  0  0  0  0  0  0  0  0  0  0
  1 22  1  0  0  0  0
  2 21  1  0  0  0  0
  2 20  1  0  0  0  0
  3 23  1  0  0  0  0
  3  5  1  0  0  0  0
  4 20  1  0  0  0  0
  4 33  1  0  0  0  0
  5  1  1  0  0  0  0
  5  6  2  0  0  0  0
  6  8  1  0  0  0  0
  7  6  1  0  0  0  0
  8 10  2  0  0  0  0
  8  9  1  0  0  0  0
 10 11  1  0  0  0  0
 11 13  2  0  0  0  0
 11 12  1  0  0  0  0
 13 14  1  0  0  0  0
 15 16  2  0  0  0  0
 15 13  1  0  0  0  0
 16 17  1  0  0  0  0
 18 19  1  0  0  0  0
 18 16  1  0  0  0  0
 20 18  2  0  0  0  0
 21 15  1  0  0  0  0
 22 21  2  0  0  0  0
 22 10  1  0  0  0  0
 23 26  1  0  0  0  0
 24 23  1  0  0  0  0
 25 23  1  0  0  0  0
 26 28  1  0  0  0  0
 26 27  1  0  0  0  0
 26 29  1  0  0  0  0
 29 31  1  0  0  0  0
 30 29  1  0  0  0  0
 32 29  1  0  0  0  0
 33 36  1  0  0  0  0
 33 35  1  0  0  0  0
 34 33  1  0  0  0  0
 36 37  1  0  0  0  0
 36 39  1  0  0  0  0
 38 36  1  0  0  0  0
 39 41  1  0  0  0  0
 39 42  1  0  0  0  0
 40 39  1  0  0  0  0
M  END
