1,3
 OpenBabel05122313053D

 47 49  0  0  1  0  0  0  0  0999 V2000
    2.4931    0.0700   -0.2183 N   0  0  0  0  0  2  0  0  0  0  0  0
    2.1152    1.3552   -0.4643 N   0  0  0  0  0  0  0  0  0  0  0  0
    0.2737    0.1973    1.4931 N   0  0  0  0  0  2  0  0  0  0  0  0
    0.2361    1.4657    1.0029 N   0  0  0  0  0  0  0  0  0  0  0  0
    0.3135    0.8362   -2.5656 O   0  0  0  0  0  0  0  0  0  0  0  0
   -1.3403    0.7292   -0.9857 O   0  0  0  0  0  0  0  0  0  0  0  0
    3.8276    0.0112   -0.3849 C   0  0  1  0  0  3  0  0  0  0  0  0
    4.2951    1.2962   -0.7705 C   0  0  0  0  0  0  0  0  0  0  0  0
    3.1846    2.1359   -0.8177 C   0  0  0  0  0  0  0  0  0  0  0  0
    4.6045   -1.2390   -0.1509 C   0  0  0  0  0  0  0  0  0  0  0  0
    3.0471    3.5738   -1.1903 C   0  0  0  0  0  0  0  0  0  0  0  0
   -0.2448    0.2359    2.7348 C   0  0  2  0  0  3  0  0  0  0  0  0
   -0.6419    1.5697    3.0206 C   0  0  0  0  0  0  0  0  0  0  0  0
   -0.3286    2.3357    1.8996 C   0  0  0  0  0  0  0  0  0  0  0  0
   -0.3139   -0.9735    3.6040 C   0  0  0  0  0  0  0  0  0  0  0  0
   -0.5394    3.7822    1.6019 C   0  0  0  0  0  0  0  0  0  0  0  0
    0.7192    1.7097   -0.3382 C   0  0  2  0  0  0  0  0  0  0  0  0
   -0.1162    0.9907   -1.4432 C   0  0  0  0  0  0  0  0  0  0  0  0
   -2.1957   -0.1122   -1.8239 C   0  0  0  0  0  0  0  0  0  0  0  0
   -3.5897   -0.0322   -1.2726 C   0  0  0  0  0  0  0  0  0  0  0  0
   -3.8941   -0.6718   -0.0526 C   0  0  0  0  0  0  0  0  0  0  0  0
   -5.1848   -0.5780    0.4855 C   0  0  0  0  0  0  0  0  0  0  0  0
   -6.1824    0.1481   -0.1875 C   0  0  0  0  0  0  0  0  0  0  0  0
   -5.8856    0.7833   -1.4034 C   0  0  0  0  0  0  0  0  0  0  0  0
   -4.5919    0.6959   -1.9405 C   0  0  0  0  0  0  0  0  0  0  0  0
    5.3303    1.5731   -0.9940 H   0  0  0  0  0  0  0  0  0  0  0  0
   -0.9893    4.2809    2.4794 H   0  0  0  0  0  0  0  0  0  0  0  0
    0.6371    2.7970   -0.5255 H   0  0  0  0  0  0  0  0  0  0  0  0
   -1.1073    1.9283    3.9441 H   0  0  0  0  0  0  0  0  0  0  0  0
    2.6267    4.1863   -0.3643 H   0  0  0  0  0  0  0  0  0  0  0  0
    4.1125   -2.0849   -0.6728 H   0  0  0  0  0  0  0  0  0  0  0  0
   -3.1046   -1.2486    0.4577 H   0  0  0  0  0  0  0  0  0  0  0  0
    4.0397    3.9906   -1.4394 H   0  0  0  0  0  0  0  0  0  0  0  0
   -6.6651    1.3489   -1.9365 H   0  0  0  0  0  0  0  0  0  0  0  0
   -2.1233    0.2402   -2.8713 H   0  0  0  0  0  0  0  0  0  0  0  0
    2.3950    3.7012   -2.0795 H   0  0  0  0  0  0  0  0  0  0  0  0
   -1.2295    3.9271    0.7443 H   0  0  0  0  0  0  0  0  0  0  0  0
    0.4108    4.3090    1.3705 H   0  0  0  0  0  0  0  0  0  0  0  0
   -0.7191   -1.8279    3.0251 H   0  0  0  0  0  0  0  0  0  0  0  0
   -4.3558    1.1942   -2.8945 H   0  0  0  0  0  0  0  0  0  0  0  0
   -1.7777   -1.1382   -1.7483 H   0  0  0  0  0  0  0  0  0  0  0  0
   -5.4180   -1.0833    1.4354 H   0  0  0  0  0  0  0  0  0  0  0  0
    5.6449   -1.1204   -0.5044 H   0  0  0  0  0  0  0  0  0  0  0  0
    4.6256   -1.4897    0.9299 H   0  0  0  0  0  0  0  0  0  0  0  0
   -0.9441   -0.7783    4.4909 H   0  0  0  0  0  0  0  0  0  0  0  0
   -7.1969    0.2144    0.2350 H   0  0  0  0  0  0  0  0  0  0  0  0
    0.6995   -1.2639    3.9509 H   0  0  0  0  0  0  0  0  0  0  0  0
  2 17  1  0  0  0  0
  2  1  1  0  0  0  0
  3 12  1  0  0  0  0
  4  3  1  0  0  0  0
  4 14  1  0  0  0  0
  5 18  2  0  0  0  0
  7  1  1  0  0  0  0
  7 10  1  1  0  0  0
  8  7  1  0  0  0  0
  9  8  2  0  0  0  0
  9  2  1  0  0  0  0
 10 44  1  0  0  0  0
 11  9  1  0  0  0  0
 11 30  1  0  0  0  0
 12 13  1  0  0  0  0
 12 15  1  1  0  0  0
 13 29  1  0  0  0  0
 14 13  2  0  0  0  0
 15 47  1  0  0  0  0
 15 45  1  0  0  0  0
 16 14  1  0  0  0  0
 16 27  1  0  0  0  0
 17 28  1  6  0  0  0
 17  4  1  0  0  0  0
 18  6  1  0  0  0  0
 18 17  1  0  0  0  0
 19 41  1  0  0  0  0
 19 20  1  0  0  0  0
 19  6  1  0  0  0  0
 20 21  1  0  0  0  0
 21 32  1  0  0  0  0
 21 22  2  0  0  0  0
 22 42  1  0  0  0  0
 23 46  1  0  0  0  0
 23 22  1  0  0  0  0
 24 23  2  0  0  0  0
 25 24  1  0  0  0  0
 25 20  2  0  0  0  0
 26  8  1  0  0  0  0
 31 10  1  0  0  0  0
 33 11  1  0  0  0  0
 34 24  1  0  0  0  0
 35 19  1  0  0  0  0
 36 11  1  0  0  0  0
 37 16  1  0  0  0  0
 38 16  1  0  0  0  0
 39 15  1  0  0  0  0
 40 25  1  0  0  0  0
 43 10  1  0  0  0  0
M  END
