1,4
 OpenBabel05122313053D

 34 38  0  0  1  0  0  0  0  0999 V2000
    0.2856    1.7320   -0.4867 N   0  0  0  0  0  2  0  0  0  0  0  0
    2.0931    3.0522   -0.4043 N   0  0  0  0  0  0  0  0  0  0  0  0
    3.0138    3.3685   -0.0997 H   0  0  0  0  0  0  0  0  0  0  0  0
    1.5207   -0.4996    0.3906 N   0  0  0  0  0  2  0  0  0  0  0  0
    4.7521    1.2689   -0.2176 N   0  0  0  0  0  0  0  0  0  0  0  0
    4.6497    2.0802   -0.8264 H   0  0  0  0  0  0  0  0  0  0  0  0
   -0.1233    3.0294   -0.7596 C   0  0  0  0  0  0  0  0  0  0  0  0
   -1.3972    3.5502   -1.0588 C   0  0  0  0  0  0  0  0  0  0  0  0
   -2.2724    2.8895   -1.1152 H   0  0  0  0  0  0  0  0  0  0  0  0
   -1.4872    4.9277   -1.2760 C   0  0  0  0  0  0  0  0  0  0  0  0
   -2.4653    5.3720   -1.5112 H   0  0  0  0  0  0  0  0  0  0  0  0
   -0.3499    5.7715   -1.2009 C   0  0  0  0  0  0  0  0  0  0  0  0
   -0.4709    6.8502   -1.3774 H   0  0  0  0  0  0  0  0  0  0  0  0
    0.9247    5.2688   -0.9125 C   0  0  0  0  0  0  0  0  0  0  0  0
    1.8027    5.9282   -0.8598 H   0  0  0  0  0  0  0  0  0  0  0  0
    1.0174    3.8859   -0.6976 C   0  0  0  0  0  0  0  0  0  0  0  0
    1.6088    1.7693   -0.2751 C   0  0  1  0  0  3  0  0  0  0  0  0
    2.3304    0.5595    0.0772 C   0  0  0  0  0  0  0  0  0  0  0  0
    3.7293    0.4013    0.1183 C   0  0  0  0  0  0  0  0  0  0  0  0
    4.3010   -0.8288    0.5872 C   0  0  0  0  0  0  0  0  0  0  0  0
    3.4340   -1.8727    0.9455 C   0  0  0  0  0  0  0  0  0  0  0  0
    3.8115   -2.8398    1.3056 H   0  0  0  0  0  0  0  0  0  0  0  0
    2.0556   -1.6698    0.8064 C   0  0  0  0  0  0  0  0  0  0  0  0
    1.3302   -2.4633    1.0396 H   0  0  0  0  0  0  0  0  0  0  0  0
    5.7384   -0.6715    0.5220 C   0  0  0  0  0  0  0  0  0  0  0  0
    5.9819    0.6325   -0.0072 C   0  0  2  0  0  3  0  0  0  0  0  0
    7.2790    1.1087   -0.2419 C   0  0  0  0  0  0  0  0  0  0  0  0
    7.4611    2.1114   -0.6549 H   0  0  0  0  0  0  0  0  0  0  0  0
    8.3421    0.2527    0.0759 C   0  0  0  0  0  0  0  0  0  0  0  0
    9.3733    0.5960   -0.0938 H   0  0  0  0  0  0  0  0  0  0  0  0
    8.1222   -1.0382    0.6113 C   0  0  0  0  0  0  0  0  0  0  0  0
    8.9850   -1.6761    0.8504 H   0  0  0  0  0  0  0  0  0  0  0  0
    6.8261   -1.5106    0.8370 C   0  0  0  0  0  0  0  0  0  0  0  0
    6.6577   -2.5165    1.2489 H   0  0  0  0  0  0  0  0  0  0  0  0
  1 17  1  0  0  0  0
  2 17  1  0  0  0  0
  2  3  1  0  0  0  0
  4 23  1  0  0  0  0
  5 26  1  0  0  0  0
  5 19  1  0  0  0  0
  6  5  1  0  0  0  0
  7 16  1  0  0  0  0
  7  1  1  0  0  0  0
  8  7  2  0  0  0  0
  9  8  1  0  0  0  0
 10 12  2  0  0  0  0
 10  8  1  0  0  0  0
 11 10  1  0  0  0  0
 12 14  1  0  0  0  0
 13 12  1  0  0  0  0
 14 15  1  0  0  0  0
 14 16  2  0  0  0  0
 16  2  1  0  0  0  0
 17 18  1  1  0  0  0
 18 19  2  0  0  0  0
 18  4  1  0  0  0  0
 19 20  1  0  0  0  0
 20 21  1  0  0  0  0
 21 22  1  0  0  0  0
 23 21  2  0  0  0  0
 23 24  1  0  0  0  0
 25 20  2  0  0  0  0
 25 33  1  0  0  0  0
 26 27  1  1  0  0  0
 26 25  1  0  0  0  0
 27 29  2  0  0  0  0
 28 27  1  0  0  0  0
 29 31  1  0  0  0  0
 30 29  1  0  0  0  0
 31 33  2  0  0  0  0
 31 32  1  0  0  0  0
 33 34  1  0  0  0  0
M  END
