1,3
 OpenBabel05122313053D

 29 31  0  0  0  0  0  0  0  0999 V2000
    0.0200    0.8469    0.0648 N   0  0  0  0  0  2  0  0  0  0  0  0
   -1.1271    1.6090    0.1330 C   0  0  0  0  0  0  0  0  0  0  0  0
   -2.1774   -0.4439   -0.4516 N   0  0  0  0  0  2  0  0  0  0  0  0
   -1.0837    2.9990    0.3565 C   0  0  0  0  0  0  0  0  0  0  0  0
   -2.0170    3.5693    0.4557 H   0  0  0  0  0  0  0  0  0  0  0  0
   -2.3673    0.8759   -0.1279 C   0  0  0  0  0  0  0  0  0  0  0  0
    1.2267    1.4828    0.0970 C   0  0  0  0  0  0  0  0  0  0  0  0
    3.4898    1.3780   -0.6817 N   0  0  0  0  0  0  0  0  0  0  0  0
   -3.6635    1.4358   -0.1180 C   0  0  0  0  0  0  0  0  0  0  0  0
   -3.8121    2.4785    0.1946 H   0  0  0  0  0  0  0  0  0  0  0  0
    2.5000    0.7163   -0.0441 C   0  0  0  0  0  0  0  0  0  0  0  0
    1.3160    2.8790    0.2431 C   0  0  0  0  0  0  0  0  0  0  0  0
    2.3170    3.3287    0.2270 H   0  0  0  0  0  0  0  0  0  0  0  0
   -3.2321   -1.1885   -0.8561 C   0  0  0  0  0  0  0  0  0  0  0  0
   -3.0056   -2.2350   -1.1099 H   0  0  0  0  0  0  0  0  0  0  0  0
    4.9210   -0.5504   -0.4089 C   0  0  0  0  0  0  0  0  0  0  0  0
    5.8985   -1.0203   -0.5939 H   0  0  0  0  0  0  0  0  0  0  0  0
   -4.7503    0.6581   -0.5172 C   0  0  0  0  0  0  0  0  0  0  0  0
   -5.7652    1.0816   -0.5203 H   0  0  0  0  0  0  0  0  0  0  0  0
    0.1531    3.6424    0.4109 C   0  0  0  0  0  0  0  0  0  0  0  0
    0.2131    4.7292    0.5685 H   0  0  0  0  0  0  0  0  0  0  0  0
   -4.5261   -0.6757   -0.9203 C   0  0  0  0  0  0  0  0  0  0  0  0
   -5.3509   -1.3164   -1.2623 H   0  0  0  0  0  0  0  0  0  0  0  0
    2.6793   -0.5764    0.4880 C   0  0  0  0  0  0  0  0  0  0  0  0
    1.8612   -1.0628    1.0362 H   0  0  0  0  0  0  0  0  0  0  0  0
    3.9094   -1.2178    0.2947 C   0  0  0  0  0  0  0  0  0  0  0  0
    4.0726   -2.2295    0.6957 H   0  0  0  0  0  0  0  0  0  0  0  0
    4.6606    0.7548   -0.8608 C   0  0  0  0  0  0  0  0  0  0  0  0
    5.4411    1.3255   -1.3955 H   0  0  0  0  0  0  0  0  0  0  0  0
  1  7  1  0  0  0  0
  1  2  1  0  0  0  0
  2  4  1  0  0  0  0
  3  6  1  0  0  0  0
  4 20  2  0  0  0  0
  4  5  1  0  0  0  0
  6  9  1  0  0  0  0
  6  2  2  0  0  0  0
  7 12  2  0  0  0  0
  8 11  1  0  0  0  0
  9 10  1  0  0  0  0
 11  7  1  0  0  0  0
 11 24  2  0  0  0  0
 12 20  1  0  0  0  0
 13 12  1  0  0  0  0
 14  3  1  0  0  0  0
 15 14  1  0  0  0  0
 16 26  2  0  0  0  0
 17 16  1  0  0  0  0
 18  9  2  0  0  0  0
 19 18  1  0  0  0  0
 20 21  1  0  0  0  0
 22 14  2  0  0  0  0
 22 18  1  0  0  0  0
 23 22  1  0  0  0  0
 24 25  1  0  0  0  0
 26 24  1  0  0  0  0
 26 27  1  0  0  0  0
 28  8  2  0  0  0  0
 28 16  1  0  0  0  0
 29 28  1  0  0  0  0
M  END
