1,3
 OpenBabel05122313053D

 40 42  0  0  0  0  0  0  0  0999 V2000
   -1.2537    0.7278   -0.0478 N   0  0  0  0  0  2  0  0  0  0  0  0
    0.7133    1.9968   -0.0442 C   0  0  0  0  0  0  0  0  0  0  0  0
    1.2535    0.7281   -0.0480 N   0  0  0  0  0  2  0  0  0  0  0  0
    0.7151    4.4427   -0.0637 C   0  0  0  0  0  0  0  0  0  0  0  0
   -0.7138    1.9966   -0.0441 C   0  0  0  0  0  0  0  0  0  0  0  0
   -1.4108    3.2252   -0.0574 C   0  0  0  0  0  0  0  0  0  0  0  0
   -2.5110    3.2215   -0.0639 H   0  0  0  0  0  0  0  0  0  0  0  0
   -2.6615    0.5596   -0.0197 C   0  0  0  0  0  0  0  0  0  0  0  0
   -0.7162    4.4425   -0.0637 C   0  0  0  0  0  0  0  0  0  0  0  0
    5.4492    0.1284    0.0442 C   0  0  0  0  0  0  0  0  0  0  0  0
    6.5354   -0.0456    0.0705 H   0  0  0  0  0  0  0  0  0  0  0  0
    1.4719    5.7471   -0.0744 C   0  0  0  0  0  0  0  0  0  0  0  0
    2.5662    5.5786   -0.0750 H   0  0  0  0  0  0  0  0  0  0  0  0
    1.2281    6.3753    0.8098 H   0  0  0  0  0  0  0  0  0  0  0  0
    1.2252    6.3626   -0.9665 H   0  0  0  0  0  0  0  0  0  0  0  0
   -5.4492    0.1272    0.0441 C   0  0  0  0  0  0  0  0  0  0  0  0
   -6.5354   -0.0471    0.0703 H   0  0  0  0  0  0  0  0  0  0  0  0
    2.6613    0.5602   -0.0197 C   0  0  0  0  0  0  0  0  0  0  0  0
    1.4100    3.2255   -0.0576 C   0  0  0  0  0  0  0  0  0  0  0  0
    2.5102    3.2221   -0.0641 H   0  0  0  0  0  0  0  0  0  0  0  0
   -3.3631    0.2596   -1.2049 C   0  0  0  0  0  0  0  0  0  0  0  0
   -2.7977    0.1998   -2.1463 H   0  0  0  0  0  0  0  0  0  0  0  0
   -4.7485    0.0401   -1.1705 C   0  0  0  0  0  0  0  0  0  0  0  0
   -5.2864   -0.1969   -2.1015 H   0  0  0  0  0  0  0  0  0  0  0  0
    4.7485    0.0409   -1.1704 C   0  0  0  0  0  0  0  0  0  0  0  0
    5.2865   -0.1962   -2.1013 H   0  0  0  0  0  0  0  0  0  0  0  0
    3.3701    0.6611    1.1950 C   0  0  0  0  0  0  0  0  0  0  0  0
    2.8113    0.9006    2.1118 H   0  0  0  0  0  0  0  0  0  0  0  0
   -4.7558    0.4439    1.2242 C   0  0  0  0  0  0  0  0  0  0  0  0
   -5.2992    0.5182    2.1788 H   0  0  0  0  0  0  0  0  0  0  0  0
   -3.3703    0.6600    1.1951 C   0  0  0  0  0  0  0  0  0  0  0  0
   -2.8116    0.8994    2.1120 H   0  0  0  0  0  0  0  0  0  0  0  0
    4.7556    0.4452    1.2242 C   0  0  0  0  0  0  0  0  0  0  0  0
    5.2989    0.5199    2.1789 H   0  0  0  0  0  0  0  0  0  0  0  0
    3.3631    0.2601   -1.2049 C   0  0  0  0  0  0  0  0  0  0  0  0
    2.7977    0.2001   -2.1463 H   0  0  0  0  0  0  0  0  0  0  0  0
   -1.4734    5.7467   -0.0742 C   0  0  0  0  0  0  0  0  0  0  0  0
   -2.5676    5.5779   -0.0747 H   0  0  0  0  0  0  0  0  0  0  0  0
   -1.2269    6.3623   -0.9664 H   0  0  0  0  0  0  0  0  0  0  0  0
   -1.2297    6.3750    0.8098 H   0  0  0  0  0  0  0  0  0  0  0  0
  1  5  1  0  0  0  0
  1  8  1  0  0  0  0
  2  5  1  0  0  0  0
  3  2  1  0  0  0  0
  3 18  1  0  0  0  0
  4  9  2  0  0  0  0
  4 19  1  0  0  0  0
  6  5  2  0  0  0  0
  7  6  1  0  0  0  0
  8 31  1  0  0  0  0
  9  6  1  0  0  0  0
 10 11  1  0  0  0  0
 10 33  1  0  0  0  0
 12  4  1  0  0  0  0
 12 14  1  0  0  0  0
 13 12  1  0  0  0  0
 15 12  1  0  0  0  0
 16 17  1  0  0  0  0
 16 29  1  0  0  0  0
 18 27  1  0  0  0  0
 19  2  2  0  0  0  0
 20 19  1  0  0  0  0
 21 23  1  0  0  0  0
 21  8  2  0  0  0  0
 22 21  1  0  0  0  0
 23 16  2  0  0  0  0
 24 23  1  0  0  0  0
 25 10  2  0  0  0  0
 26 25  1  0  0  0  0
 27 33  2  0  0  0  0
 27 28  1  0  0  0  0
 29 30  1  0  0  0  0
 31 29  2  0  0  0  0
 31 32  1  0  0  0  0
 33 34  1  0  0  0  0
 35 25  1  0  0  0  0
 35 18  2  0  0  0  0
 36 35  1  0  0  0  0
 37  9  1  0  0  0  0
 37 40  1  0  0  0  0
 38 37  1  0  0  0  0
 39 37  1  0  0  0  0
M  END
