2,3
 OpenBabel05122313053D

 24 25  0  0  0  0  0  0  0  0999 V2000
   -6.1348    0.6183    0.0722 F   0  0  0  0  0  0  0  0  0  0  0  0
    2.0171    0.8168    0.0724 N   0  0  0  0  0  2  0  0  0  0  0  0
   -0.5907    0.8459    0.0586 N   0  0  0  0  0  2  0  0  0  0  0  0
    3.3649    0.7154    0.1062 C   0  0  0  0  0  0  0  0  0  0  0  0
    3.7466   -0.3195    0.1011 H   0  0  0  0  0  0  0  0  0  0  0  0
    4.1842    1.8476    0.1345 C   0  0  0  0  0  0  0  0  0  0  0  0
    5.2751    1.7161    0.1618 H   0  0  0  0  0  0  0  0  0  0  0  0
    3.6036    3.1292    0.1266 C   0  0  0  0  0  0  0  0  0  0  0  0
    4.2326    4.0310    0.1463 H   0  0  0  0  0  0  0  0  0  0  0  0
    2.2110    3.2367    0.0937 C   0  0  0  0  0  0  0  0  0  0  0  0
    1.7097    4.2151    0.0873 H   0  0  0  0  0  0  0  0  0  0  0  0
    1.4305    2.0645    0.0675 C   0  0  0  0  0  0  0  0  0  0  0  0
   -0.0075    2.0324    0.0643 C   0  0  0  0  0  0  0  0  0  0  0  0
   -0.6051    2.9563    0.1185 H   0  0  0  0  0  0  0  0  0  0  0  0
   -2.0103    0.7752    0.0485 C   0  0  0  0  0  0  0  0  0  0  0  0
   -2.6749   -0.0989    0.9349 C   0  0  0  0  0  0  0  0  0  0  0  0
   -2.0862   -0.7298    1.6118 H   0  0  0  0  0  0  0  0  0  0  0  0
   -4.0721   -0.1383    0.9526 C   0  0  0  0  0  0  0  0  0  0  0  0
   -4.6144   -0.8001    1.6422 H   0  0  0  0  0  0  0  0  0  0  0  0
   -4.7939    0.6694    0.0636 C   0  0  0  0  0  0  0  0  0  0  0  0
   -4.1508    1.5248   -0.8415 C   0  0  0  0  0  0  0  0  0  0  0  0
   -4.7506    2.1229   -1.5417 H   0  0  0  0  0  0  0  0  0  0  0  0
   -2.7531    1.5777   -0.8432 C   0  0  0  0  0  0  0  0  0  0  0  0
   -2.2281    2.2135   -1.5709 H   0  0  0  0  0  0  0  0  0  0  0  0
  2  4  1  0  0  0  0
  3 13  1  0  0  0  0
  4  6  2  0  0  0  0
  5  4  1  0  0  0  0
  6  7  1  0  0  0  0
  8  6  1  0  0  0  0
  8  9  1  0  0  0  0
 10  8  2  0  0  0  0
 11 10  1  0  0  0  0
 12  2  1  0  0  0  0
 12 10  1  0  0  0  0
 13 12  2  0  0  0  0
 13 14  1  0  0  0  0
 15  3  1  0  0  0  0
 15 16  1  0  0  0  0
 16 18  2  0  0  0  0
 16 17  1  0  0  0  0
 18 19  1  0  0  0  0
 20  1  1  0  0  0  0
 20 18  1  0  0  0  0
 21 20  2  0  0  0  0
 22 21  1  0  0  0  0
 23 21  1  0  0  0  0
 23 15  2  0  0  0  0
 24 23  1  0  0  0  0
M  END
