4,5
 OpenBabel05122313053D

 35 37  0  0  1  0  0  0  0  0999 V2000
    1.8970   -0.9817   -0.6772 O   0  0  0  0  0  0  0  0  0  0  0  0
    8.0831    0.5666   -0.2749 O   0  0  0  0  0  0  0  0  0  0  0  0
    8.4734   -0.2827    0.0060 H   0  0  0  0  0  0  0  0  0  0  0  0
   -2.4465    0.2746   -0.7290 N   0  0  0  0  0  2  0  0  0  0  0  0
    0.3715    1.2673   -0.4737 N   0  0  0  0  0  2  0  0  0  0  0  0
    1.7167    1.2956   -0.4441 N   0  0  0  0  0  0  0  0  0  0  0  0
    2.1945    2.1504   -0.1267 H   0  0  0  0  0  0  0  0  0  0  0  0
   -3.4138   -0.5855   -1.0500 C   0  0  0  0  0  0  0  0  0  0  0  0
   -3.1083   -1.6342   -1.2169 H   0  0  0  0  0  0  0  0  0  0  0  0
   -4.7774   -0.2213   -1.1536 C   0  0  0  0  0  0  0  0  0  0  0  0
   -5.5246   -0.9812   -1.4216 H   0  0  0  0  0  0  0  0  0  0  0  0
   -5.1276    1.0878   -0.8804 C   0  0  0  0  0  0  0  0  0  0  0  0
   -6.1775    1.4179   -0.9157 H   0  0  0  0  0  0  0  0  0  0  0  0
   -4.1198    2.0350   -0.5455 C   0  0  0  0  0  0  0  0  0  0  0  0
   -4.4541    3.3897   -0.2624 C   0  0  0  0  0  0  0  0  0  0  0  0
   -5.5122    3.6911   -0.2947 H   0  0  0  0  0  0  0  0  0  0  0  0
   -3.4606    4.3036    0.0448 C   0  0  0  0  0  0  0  0  0  0  0  0
   -3.7103    5.3500    0.2722 H   0  0  0  0  0  0  0  0  0  0  0  0
   -2.1126    3.8888    0.0492 C   0  0  0  0  0  0  0  0  0  0  0  0
   -1.3305    4.6319    0.2692 H   0  0  0  0  0  0  0  0  0  0  0  0
   -1.7158    2.5686   -0.2229 C   0  0  0  0  0  0  0  0  0  0  0  0
   -2.7465    1.5881   -0.5017 C   0  0  2  0  0  3  0  0  0  0  0  0
   -0.2722    2.3678   -0.2302 C   0  0  0  0  0  3  0  0  0  0  0  0
    0.3135    3.2895   -0.0113 H   0  0  0  0  0  0  0  0  0  0  0  0
    2.4497    0.1183   -0.5534 C   0  0  0  0  0  0  0  0  0  0  0  0
    3.9222    0.2791   -0.4938 C   0  0  0  0  0  0  0  0  0  0  0  0
    4.5978    1.4817   -0.8065 C   0  0  0  0  0  0  0  0  0  0  0  0
    4.0393    2.3656   -1.1525 H   0  0  0  0  0  0  0  0  0  0  0  0
    5.9882    1.5636   -0.7322 C   0  0  0  0  0  0  0  0  0  0  0  0
    6.5225    2.4901   -0.9852 H   0  0  0  0  0  0  0  0  0  0  0  0
    6.7385    0.4337   -0.3389 C   0  0  0  0  0  0  0  0  0  0  0  0
    6.0736   -0.7759   -0.0385 C   0  0  0  0  0  0  0  0  0  0  0  0
    6.6572   -1.6598    0.2669 H   0  0  0  0  0  0  0  0  0  0  0  0
    4.6838   -0.8501   -0.1233 C   0  0  0  0  0  0  0  0  0  0  0  0
    4.1531   -1.7846    0.1085 H   0  0  0  0  0  0  0  0  0  0  0  0
  1 25  2  0  0  0  0
  2  3  1  0  0  0  0
  5  6  1  0  0  0  0
  5 23  1  0  0  0  0
  6  7  1  0  0  0  0
  8  4  1  0  0  0  0
  9  8  1  0  0  0  0
 10  8  2  0  0  0  0
 10 12  1  0  0  0  0
 11 10  1  0  0  0  0
 12 14  2  0  0  0  0
 13 12  1  0  0  0  0
 14 22  1  0  0  0  0
 14 15  1  0  0  0  0
 15 17  2  0  0  0  0
 16 15  1  0  0  0  0
 17 19  1  0  0  0  0
 17 18  1  0  0  0  0
 19 20  1  0  0  0  0
 21 19  2  0  0  0  0
 22  4  1  6  0  0  0
 22 21  1  0  0  0  0
 23 21  1  0  0  0  0
 23 24  1  0  0  0  0
 25 26  1  0  0  0  0
 25  6  1  0  0  0  0
 26 34  1  0  0  0  0
 27 29  1  0  0  0  0
 27 26  2  0  0  0  0
 28 27  1  0  0  0  0
 29 31  2  0  0  0  0
 30 29  1  0  0  0  0
 31  2  1  0  0  0  0
 31 32  1  0  0  0  0
 32 33  1  0  0  0  0
 34 32  2  0  0  0  0
 34 35  1  0  0  0  0
M  END
