1,6
 OpenBabel05122313053D

 29 30  0  0  0  0  0  0  0  0999 V2000
   -0.4900    1.5435    0.1097 N   0  0  0  0  0  2  0  0  0  0  0  0
    0.8847    1.4652    0.0836 C   0  0  0  0  0  0  0  0  0  0  0  0
    1.6703    2.6250    0.2234 C   0  0  0  0  0  0  0  0  0  0  0  0
    2.7648    2.5352    0.2252 H   0  0  0  0  0  0  0  0  0  0  0  0
    3.4074   -0.8988    0.8821 N   0  0  0  0  0  0  0  0  0  0  0  0
    0.4840   -0.8484   -0.1068 N   0  0  0  0  0  2  0  0  0  0  0  0
    1.0461    3.8677    0.3714 C   0  0  0  0  0  0  0  0  0  0  0  0
    1.6481    4.7812    0.4828 H   0  0  0  0  0  0  0  0  0  0  0  0
   -0.3578    3.9251    0.3830 C   0  0  0  0  0  0  0  0  0  0  0  0
   -0.8913    4.8792    0.4977 H   0  0  0  0  0  0  0  0  0  0  0  0
   -1.0942    2.7448    0.2549 C   0  0  0  0  0  0  0  0  0  0  0  0
   -2.1967    2.7023    0.2612 H   0  0  0  0  0  0  0  0  0  0  0  0
    2.8704   -0.1473   -0.1003 C   0  0  0  0  0  0  0  0  0  0  0  0
    3.6400    0.4002   -1.1497 C   0  0  0  0  0  0  0  0  0  0  0  0
    3.1568    0.9933   -1.9403 H   0  0  0  0  0  0  0  0  0  0  0  0
    5.0193    0.1526   -1.1701 C   0  0  0  0  0  0  0  0  0  0  0  0
    5.6459    0.5567   -1.9796 H   0  0  0  0  0  0  0  0  0  0  0  0
    5.5800   -0.6239   -0.1468 C   0  0  0  0  0  0  0  0  0  0  0  0
    6.6575   -0.8432   -0.1208 H   0  0  0  0  0  0  0  0  0  0  0  0
    4.7276   -1.1263    0.8514 C   0  0  0  0  0  0  0  0  0  0  0  0
    5.1330   -1.7460    1.6705 H   0  0  0  0  0  0  0  0  0  0  0  0
    1.3991    0.1055   -0.0480 C   0  0  0  0  0  0  0  0  0  0  0  0
    0.8564   -2.2658   -0.1858 C   0  0  0  0  0  0  0  0  0  0  0  0
    1.8698   -2.3557   -0.6253 H   0  0  0  0  0  0  0  0  0  0  0  0
    0.1133   -2.7425   -0.8545 H   0  0  0  0  0  0  0  0  0  0  0  0
    0.7928   -2.9341    1.1886 C   0  0  0  0  0  0  0  0  0  0  0  0
    1.0645   -4.0033    1.0819 H   0  0  0  0  0  0  0  0  0  0  0  0
   -0.2389   -2.8780    1.5855 H   0  0  0  0  0  0  0  0  0  0  0  0
    1.5025   -2.4513    1.8870 H   0  0  0  0  0  0  0  0  0  0  0  0
  1 11  1  0  0  0  0
  2  1  1  0  0  0  0
  2  3  1  0  0  0  0
  3  4  1  0  0  0  0
  3  7  2  0  0  0  0
  6 22  1  0  0  0  0
  7  9  1  0  0  0  0
  7  8  1  0  0  0  0
  9 10  1  0  0  0  0
 11 12  1  0  0  0  0
 11  9  2  0  0  0  0
 13 22  1  0  0  0  0
 13  5  2  0  0  0  0
 14 13  1  0  0  0  0
 15 14  1  0  0  0  0
 16 14  2  0  0  0  0
 16 18  1  0  0  0  0
 17 16  1  0  0  0  0
 18 19  1  0  0  0  0
 18 20  2  0  0  0  0
 20  5  1  0  0  0  0
 20 21  1  0  0  0  0
 22  2  2  0  0  0  0
 23  6  1  0  0  0  0
 23 26  1  0  0  0  0
 24 23  1  0  0  0  0
 25 23  1  0  0  0  0
 26 28  1  0  0  0  0
 26 29  1  0  0  0  0
 27 26  1  0  0  0  0
M  END
