1,4
 OpenBabel05122313053D

 31 32  0  0  1  0  0  0  0  0999 V2000
   -1.3101   -1.3046   -0.0203 N   0  0  0  0  0  2  0  0  0  0  0  0
   -1.0175   -2.2824   -0.1346 H   0  0  0  0  0  0  0  0  0  0  0  0
   -3.2957    0.0000    0.0659 N   0  0  0  0  0  0  0  0  0  0  0  0
   -1.3101    1.3046   -0.0206 N   0  0  0  0  0  2  0  0  0  0  0  0
   -1.0175    2.2824   -0.1350 H   0  0  0  0  0  0  0  0  0  0  0  0
   -6.6515   -6.8188    0.0368 N   0  0  0  0  0  0  0  0  0  0  0  0
   -6.6517    6.8186    0.0368 N   0  0  0  0  0  0  0  0  0  0  0  0
   -2.6330   -1.1681    0.0315 C   0  0  1  0  0  3  0  0  0  0  0  0
   -3.4857   -2.3982    0.0511 C   0  0  0  0  0  0  0  0  0  0  0  0
   -2.9874   -3.6437    0.4923 C   0  0  0  0  0  0  0  0  0  0  0  0
   -1.9595   -3.7251    0.8782 H   0  0  0  0  0  0  0  0  0  0  0  0
   -3.7956   -4.7829    0.4934 C   0  0  0  0  0  0  0  0  0  0  0  0
   -3.4024   -5.7460    0.8481 H   0  0  0  0  0  0  0  0  0  0  0  0
   -5.1362   -4.6964    0.0511 C   0  0  0  0  0  0  0  0  0  0  0  0
   -5.6488   -3.4479   -0.3749 C   0  0  0  0  0  0  0  0  0  0  0  0
   -6.6930   -3.3788   -0.7111 H   0  0  0  0  0  0  0  0  0  0  0  0
   -4.8320   -2.3162   -0.3636 C   0  0  0  0  0  0  0  0  0  0  0  0
   -5.2169   -1.3373   -0.6787 H   0  0  0  0  0  0  0  0  0  0  0  0
   -2.6330    1.1681    0.0314 C   0  0  0  0  0  0  0  0  0  0  0  0
   -3.4857    2.3982    0.0511 C   0  0  0  0  0  0  0  0  0  0  0  0
   -4.8320    2.3162   -0.3633 C   0  0  0  0  0  0  0  0  0  0  0  0
   -5.2171    1.3372   -0.6782 H   0  0  0  0  0  0  0  0  0  0  0  0
   -5.6489    3.4479   -0.3745 C   0  0  0  0  0  0  0  0  0  0  0  0
   -6.6932    3.3788   -0.7105 H   0  0  0  0  0  0  0  0  0  0  0  0
   -5.1362    4.6965    0.0512 C   0  0  0  0  0  0  0  0  0  0  0  0
   -3.7954    4.7830    0.4932 C   0  0  0  0  0  0  0  0  0  0  0  0
   -3.4022    5.7461    0.8476 H   0  0  0  0  0  0  0  0  0  0  0  0
   -2.9873    3.6438    0.4920 C   0  0  0  0  0  0  0  0  0  0  0  0
   -1.9593    3.7253    0.8777 H   0  0  0  0  0  0  0  0  0  0  0  0
   -5.9698   -5.8627    0.0442 C   0  0  0  0  0  0  0  0  0  0  0  0
   -5.9698    5.8628    0.0443 C   0  0  0  0  0  0  0  0  0  0  0  0
  2  1  1  0  0  0  0
  4 19  1  0  0  0  0
  5  4  1  0  0  0  0
  6 30  3  0  0  0  0
  7 31  3  0  0  0  0
  8  1  1  6  0  0  0
  8  9  1  0  0  0  0
  8  3  1  0  0  0  0
  9 10  1  0  0  0  0
 10 12  2  0  0  0  0
 10 11  1  0  0  0  0
 12 13  1  0  0  0  0
 14 12  1  0  0  0  0
 15 17  1  0  0  0  0
 15 14  2  0  0  0  0
 16 15  1  0  0  0  0
 17  9  2  0  0  0  0
 18 17  1  0  0  0  0
 19 20  1  0  0  0  0
 19  3  2  0  0  0  0
 20 28  1  0  0  0  0
 21 20  2  0  0  0  0
 22 21  1  0  0  0  0
 23 21  1  0  0  0  0
 23 25  2  0  0  0  0
 24 23  1  0  0  0  0
 25 26  1  0  0  0  0
 26 27  1  0  0  0  0
 28 26  2  0  0  0  0
 28 29  1  0  0  0  0
 30 14  1  0  0  0  0
 31 25  1  0  0  0  0
M  END
