3,5
 OpenBabel05122313053D

 51 52  0  0  1  0  0  0  0  0999 V2000
   -2.5092    2.8396   -0.8818 S   0  0  0  0  0  0  0  0  0  0  0  0
   -0.5733   -3.1437   -1.7830 S   0  0  0  0  0  0  0  0  0  0  0  0
   -0.4404    1.4609    0.1229 N   0  0  0  0  0  2  0  0  0  0  0  0
    0.9191    1.5540    0.2970 N   0  0  0  0  0  0  0  0  0  0  0  0
    0.4238   -1.2279   -0.1909 N   0  0  0  0  0  2  0  0  0  0  0  0
    1.6191   -0.7718    0.3035 N   0  0  0  0  0  0  0  0  0  0  0  0
   -0.8242    2.6095   -0.4670 C   0  0  1  0  0  3  0  0  0  0  0  0
    0.2996    3.4524   -0.6686 C   0  0  0  0  0  0  0  0  0  0  0  0
    0.3088    4.4433   -1.1252 H   0  0  0  0  0  0  0  0  0  0  0  0
    1.4051    2.7588   -0.1770 C   0  0  0  0  0  0  0  0  0  0  0  0
    2.8622    3.1935   -0.1882 C   0  0  0  0  0  0  0  0  0  0  0  0
    3.6863    2.2048   -1.0439 C   0  0  0  0  0  0  0  0  0  0  0  0
    3.3383    2.2217   -2.0955 H   0  0  0  0  0  0  0  0  0  0  0  0
    3.5951    1.1613   -0.6923 H   0  0  0  0  0  0  0  0  0  0  0  0
    4.7612    2.4780   -1.0286 H   0  0  0  0  0  0  0  0  0  0  0  0
    3.4301    3.3203    1.2461 C   0  0  0  0  0  0  0  0  0  0  0  0
    3.4609    2.3637    1.8019 H   0  0  0  0  0  0  0  0  0  0  0  0
    2.8231    4.0295    1.8429 H   0  0  0  0  0  0  0  0  0  0  0  0
    4.4695    3.7046    1.2071 H   0  0  0  0  0  0  0  0  0  0  0  0
    2.9615    4.5858   -0.8442 C   0  0  0  0  0  0  0  0  0  0  0  0
    2.5774    4.5737   -1.8830 H   0  0  0  0  0  0  0  0  0  0  0  0
    4.0220    4.9046   -0.8789 H   0  0  0  0  0  0  0  0  0  0  0  0
    2.3974    5.3473   -0.2704 H   0  0  0  0  0  0  0  0  0  0  0  0
    0.7177   -2.2973   -0.9576 C   0  0  1  0  0  3  0  0  0  0  0  0
    2.1100   -2.5506   -0.9199 C   0  0  0  0  0  0  0  0  0  0  0  0
    2.6441   -3.3767   -1.3954 H   0  0  0  0  0  0  0  0  0  0  0  0
    2.6724   -1.5764   -0.0879 C   0  0  0  0  0  0  0  0  0  0  0  0
    4.1268   -1.6032    0.3977 C   0  0  0  0  0  0  0  0  0  0  0  0
    4.3589   -2.9995    1.0334 C   0  0  0  0  0  0  0  0  0  0  0  0
    4.1819   -3.8152    0.3072 H   0  0  0  0  0  0  0  0  0  0  0  0
    3.6818   -3.1604    1.8957 H   0  0  0  0  0  0  0  0  0  0  0  0
    5.4056   -3.0818    1.3915 H   0  0  0  0  0  0  0  0  0  0  0  0
    5.0697   -1.4425   -0.8171 C   0  0  0  0  0  0  0  0  0  0  0  0
    4.8751   -2.2192   -1.5821 H   0  0  0  0  0  0  0  0  0  0  0  0
    6.1269   -1.5378   -0.4953 H   0  0  0  0  0  0  0  0  0  0  0  0
    4.9449   -0.4544   -1.3014 H   0  0  0  0  0  0  0  0  0  0  0  0
    4.5020   -0.5600    1.4672 C   0  0  0  0  0  0  0  0  0  0  0  0
    4.5038    0.4764    1.0798 H   0  0  0  0  0  0  0  0  0  0  0  0
    5.5349   -0.7647    1.8118 H   0  0  0  0  0  0  0  0  0  0  0  0
    3.8460   -0.6187    2.3586 H   0  0  0  0  0  0  0  0  0  0  0  0
    1.5592    0.4845    1.0387 C   0  0  0  0  0  0  0  0  0  0  0  0
    0.9602    0.3191    1.9588 H   0  0  0  0  0  0  0  0  0  0  0  0
    2.5767    0.7884    1.3021 H   0  0  0  0  0  0  0  0  0  0  0  0
   -2.4123    4.5015   -1.6222 C   0  0  0  0  0  0  0  0  0  0  0  0
   -3.4482    4.7497   -1.9201 H   0  0  0  0  0  0  0  0  0  0  0  0
   -1.7688    4.5103   -2.5239 H   0  0  0  0  0  0  0  0  0  0  0  0
   -2.0605    5.2552   -0.8906 H   0  0  0  0  0  0  0  0  0  0  0  0
    0.4083   -4.3937   -2.6728 C   0  0  0  0  0  0  0  0  0  0  0  0
   -0.3245   -4.9790   -3.2592 H   0  0  0  0  0  0  0  0  0  0  0  0
    0.9301   -5.0757   -1.9727 H   0  0  0  0  0  0  0  0  0  0  0  0
    1.1337   -3.9264   -3.3676 H   0  0  0  0  0  0  0  0  0  0  0  0
  3  4  1  0  0  0  0
  4 41  1  0  0  0  0
  5  6  1  0  0  0  0
  6 41  1  0  0  0  0
  7  1  1  6  0  0  0
  7  3  1  0  0  0  0
  8  7  1  0  0  0  0
  8 10  2  0  0  0  0
  9  8  1  0  0  0  0
 10  4  1  0  0  0  0
 11 10  1  0  0  0  0
 11 16  1  0  0  0  0
 12 15  1  0  0  0  0
 12 14  1  0  0  0  0
 12 11  1  0  0  0  0
 13 12  1  0  0  0  0
 16 17  1  0  0  0  0
 16 18  1  0  0  0  0
 19 16  1  0  0  0  0
 20 23  1  0  0  0  0
 20 11  1  0  0  0  0
 21 20  1  0  0  0  0
 22 20  1  0  0  0  0
 24  2  1  1  0  0  0
 24 25  1  0  0  0  0
 24  5  1  0  0  0  0
 25 27  2  0  0  0  0
 26 25  1  0  0  0  0
 27  6  1  0  0  0  0
 27 28  1  0  0  0  0
 28 29  1  0  0  0  0
 28 37  1  0  0  0  0
 29 32  1  0  0  0  0
 29 31  1  0  0  0  0
 30 29  1  0  0  0  0
 33 35  1  0  0  0  0
 33 28  1  0  0  0  0
 34 33  1  0  0  0  0
 36 33  1  0  0  0  0
 37 39  1  0  0  0  0
 37 40  1  0  0  0  0
 38 37  1  0  0  0  0
 41 43  1  0  0  0  0
 41 42  1  0  0  0  0
 44 47  1  0  0  0  0
 44  1  1  0  0  0  0
 45 44  1  0  0  0  0
 46 44  1  0  0  0  0
 48 50  1  0  0  0  0
 48  2  1  0  0  0  0
 49 48  1  0  0  0  0
 51 48  1  0  0  0  0
M  END
