2,31
 OpenBabel05122313053D

 55 58  0  0  1  0  0  0  0  0999 V2000
   -2.8866    3.2981   -0.5765 S   0  0  0  0  0  0  0  0  0  0  0  0
   -1.2235    1.4366    0.4073 N   0  0  0  0  0  2  0  0  0  0  0  0
    0.1150    1.1931    0.5641 N   0  0  0  0  0  0  0  0  0  0  0  0
    6.4851    1.9872   -0.8487 O   0  0  0  0  0  0  0  0  0  0  0  0
   -1.3075    2.6235   -0.2364 C   0  0  1  0  0  3  0  0  0  0  0  0
   -0.0104    3.1133   -0.5388 C   0  0  0  0  0  0  0  0  0  0  0  0
    0.2606    4.0490   -1.0340 H   0  0  0  0  0  0  0  0  0  0  0  0
    0.8858    2.1653   -0.0339 C   0  0  0  0  0  0  0  0  0  0  0  0
    0.5120   -0.0876    1.1006 C   0  0  0  0  0  0  0  0  0  0  0  0
    1.5937   -0.0735    1.3100 H   0  0  0  0  0  0  0  0  0  0  0  0
   -0.0664   -0.2678    2.0280 H   0  0  0  0  0  0  0  0  0  0  0  0
   -2.3849    4.8416   -1.4015 C   0  0  0  0  0  0  0  0  0  0  0  0
   -3.3291    5.3576   -1.6580 H   0  0  0  0  0  0  0  0  0  0  0  0
   -1.8227    4.6399   -2.3344 H   0  0  0  0  0  0  0  0  0  0  0  0
   -1.7921    5.4912   -0.7278 H   0  0  0  0  0  0  0  0  0  0  0  0
    2.3483    2.1125   -0.1634 C   0  0  0  0  0  0  0  0  0  0  0  0
    3.2210    1.7950    0.8991 C   0  0  0  0  0  0  0  0  0  0  0  0
    2.8175    1.6200    1.9080 H   0  0  0  0  0  0  0  0  0  0  0  0
    4.6100    1.7380    0.7135 C   0  0  0  0  0  0  0  0  0  0  0  0
    5.2540    1.4786    1.5637 H   0  0  0  0  0  0  0  0  0  0  0  0
    5.1617    2.0187   -0.5540 C   0  0  0  0  0  0  0  0  0  0  0  0
    4.3008    2.3600   -1.6209 C   0  0  0  0  0  0  0  0  0  0  0  0
    4.7480    2.5764   -2.6017 H   0  0  0  0  0  0  0  0  0  0  0  0
    2.9228    2.4013   -1.4273 C   0  0  0  0  0  0  0  0  0  0  0  0
    2.2600    2.6424   -2.2716 H   0  0  0  0  0  0  0  0  0  0  0  0
    7.4058    1.6655    0.1828 C   0  0  0  0  0  0  0  0  0  0  0  0
    8.4128    1.7506   -0.2656 H   0  0  0  0  0  0  0  0  0  0  0  0
    7.2580    0.6254    0.5452 H   0  0  0  0  0  0  0  0  0  0  0  0
    7.3310    2.3758    1.0361 H   0  0  0  0  0  0  0  0  0  0  0  0
    0.2561   -1.1597    0.1643 N   0  0  0  0  0  0  0  0  0  0  0  0
   -1.0243   -1.3535   -0.2694 N   0  0  0  0  0  2  0  0  0  0  0  0
   -0.9280   -2.1917   -1.3266 C   0  0  2  0  0  3  0  0  0  0  0  0
   -2.3928   -2.7125   -2.1310 S   0  0  0  0  0  0  0  0  0  0  0  0
   -1.6692   -3.7708   -3.4237 C   0  0  0  0  0  0  0  0  0  0  0  0
   -2.5283   -4.1498   -4.0083 H   0  0  0  0  0  0  0  0  0  0  0  0
   -1.0036   -3.1951   -4.0965 H   0  0  0  0  0  0  0  0  0  0  0  0
   -1.1245   -4.6318   -2.9885 H   0  0  0  0  0  0  0  0  0  0  0  0
    0.4345   -2.5147   -1.5820 C   0  0  0  0  0  0  0  0  0  0  0  0
    0.8372   -3.2002   -2.3318 H   0  0  0  0  0  0  0  0  0  0  0  0
    1.1719   -1.8328   -0.6117 C   0  0  0  0  0  0  0  0  0  0  0  0
    2.6100   -1.8123   -0.2981 C   0  0  0  0  0  0  0  0  0  0  0  0
    3.0607   -2.1987    0.9820 C   0  0  0  0  0  0  0  0  0  0  0  0
    2.3312   -2.5490    1.7284 H   0  0  0  0  0  0  0  0  0  0  0  0
    4.4219   -2.1754    1.3155 C   0  0  0  0  0  0  0  0  0  0  0  0
    4.7337   -2.4931    2.3190 H   0  0  0  0  0  0  0  0  0  0  0  0
    5.3649   -1.7591    0.3551 C   0  0  0  0  0  0  0  0  0  0  0  0
    6.7078   -1.6882    0.5808 O   0  0  0  0  0  0  0  0  0  0  0  0
    7.2058   -2.1365    1.8307 C   0  0  0  0  0  0  0  0  0  0  0  0
    8.3049   -2.0262    1.7865 H   0  0  0  0  0  0  0  0  0  0  0  0
    6.8139   -1.5284    2.6768 H   0  0  0  0  0  0  0  0  0  0  0  0
    6.9554   -3.2048    2.0118 H   0  0  0  0  0  0  0  0  0  0  0  0
    4.9279   -1.3694   -0.9299 C   0  0  0  0  0  0  0  0  0  0  0  0
    5.6782   -1.0263   -1.6563 H   0  0  0  0  0  0  0  0  0  0  0  0
    3.5706   -1.3981   -1.2502 C   0  0  0  0  0  0  0  0  0  0  0  0
    3.2368   -1.0712   -2.2457 H   0  0  0  0  0  0  0  0  0  0  0  0
  2  3  1  0  0  0  0
  3  9  1  0  0  0  0
  4 21  1  0  0  0  0
  4 26  1  0  0  0  0
  5  1  1  6  0  0  0
  5  2  1  0  0  0  0
  6  5  1  0  0  0  0
  6  8  2  0  0  0  0
  7  6  1  0  0  0  0
  8  3  1  0  0  0  0
  9 10  1  0  0  0  0
  9 11  1  0  0  0  0
 12 15  1  0  0  0  0
 12  1  1  0  0  0  0
 13 12  1  0  0  0  0
 14 12  1  0  0  0  0
 16  8  1  0  0  0  0
 16 17  1  0  0  0  0
 17 18  1  0  0  0  0
 19 17  2  0  0  0  0
 19 20  1  0  0  0  0
 21 19  1  0  0  0  0
 22 24  1  0  0  0  0
 22 21  2  0  0  0  0
 23 22  1  0  0  0  0
 24 16  2  0  0  0  0
 25 24  1  0  0  0  0
 26 28  1  0  0  0  0
 26 29  1  0  0  0  0
 27 26  1  0  0  0  0
 30  9  1  0  0  0  0
 31 30  1  0  0  0  0
 32 33  1  1  0  0  0
 32 31  1  0  0  0  0
 34 37  1  0  0  0  0
 34 33  1  0  0  0  0
 35 34  1  0  0  0  0
 36 34  1  0  0  0  0
 38 32  1  0  0  0  0
 38 40  2  0  0  0  0
 39 38  1  0  0  0  0
 40 41  1  0  0  0  0
 40 30  1  0  0  0  0
 41 42  1  0  0  0  0
 42 44  2  0  0  0  0
 42 43  1  0  0  0  0
 44 45  1  0  0  0  0
 46 47  1  0  0  0  0
 46 44  1  0  0  0  0
 47 48  1  0  0  0  0
 48 51  1  0  0  0  0
 48 50  1  0  0  0  0
 49 48  1  0  0  0  0
 52 46  2  0  0  0  0
 53 52  1  0  0  0  0
 54 52  1  0  0  0  0
 54 41  2  0  0  0  0
 55 54  1  0  0  0  0
M  END
