5,6
 OpenBabel05122313053D

 41 44  0  0  1  0  0  0  0  0999 V2000
   -0.7770    2.1867   -1.4068 S   0  0  0  0  0  0  0  0  0  0  0  0
    0.3715    1.8811   -2.2860 O   0  0  0  0  0  0  0  0  0  0  0  0
   -1.2415    3.5839   -1.2214 O   0  0  0  0  0  0  0  0  0  0  0  0
   -5.2394   -1.4605   -2.8117 O   0  0  0  0  0  0  0  0  0  0  0  0
   -1.8570   -0.9145    0.4340 N   0  0  0  0  0  2  0  0  0  0  0  0
   -0.4761    1.5029    0.1034 N   0  0  0  0  0  2  0  0  0  0  0  0
   -2.2862   -2.0327   -0.1677 C   0  0  0  0  0  0  0  0  0  0  0  0
   -1.5817   -2.4965   -0.8745 H   0  0  0  0  0  0  0  0  0  0  0  0
   -3.5405   -2.6147    0.0884 C   0  0  0  0  0  0  0  0  0  0  0  0
   -3.8438   -3.5247   -0.4469 H   0  0  0  0  0  0  0  0  0  0  0  0
   -4.3457   -2.0194    1.0512 C   0  0  0  0  0  0  0  0  0  0  0  0
   -5.3077   -2.4681    1.3450 H   0  0  0  0  0  0  0  0  0  0  0  0
   -3.9387   -0.8099    1.6656 C   0  0  0  0  0  0  0  0  0  0  0  0
   -4.7375   -0.1823    2.6781 C   0  0  0  0  0  0  0  0  0  0  0  0
   -5.6649   -0.6796    3.0007 H   0  0  0  0  0  0  0  0  0  0  0  0
   -4.3393    1.0054    3.2317 C   0  0  0  0  0  0  0  0  0  0  0  0
   -4.9399    1.4821    4.0216 H   0  0  0  0  0  0  0  0  0  0  0  0
   -3.1755    1.7044    2.7571 C   0  0  0  0  0  0  0  0  0  0  0  0
   -2.9103    3.0091    3.2428 C   0  0  0  0  0  0  0  0  0  0  0  0
   -3.5538    3.4204    4.0349 H   0  0  0  0  0  0  0  0  0  0  0  0
   -1.8774    3.7637    2.6959 C   0  0  0  0  0  0  0  0  0  0  0  0
   -1.6767    4.7813    3.0640 H   0  0  0  0  0  0  0  0  0  0  0  0
   -1.0931    3.2335    1.6595 C   0  0  0  0  0  0  0  0  0  0  0  0
   -0.2987    3.8286    1.1929 H   0  0  0  0  0  0  0  0  0  0  0  0
   -1.2901    1.9281    1.1657 C   0  0  1  0  0  3  0  0  0  0  0  0
   -2.3395    1.1170    1.7393 C   0  0  0  0  0  0  0  0  0  0  0  0
   -2.6897   -0.2148    1.2665 C   0  0  0  0  0  0  0  0  0  0  0  0
   -2.1808    1.2366   -2.0054 C   0  0  0  0  0  0  0  0  0  0  0  0
   -1.9595    0.1166   -2.8261 C   0  0  0  0  0  0  0  0  0  0  0  0
   -0.9481   -0.0656   -3.2178 H   0  0  0  0  0  0  0  0  0  0  0  0
   -3.0180   -0.7467   -3.1100 C   0  0  0  0  0  0  0  0  0  0  0  0
   -2.8812   -1.6354   -3.7435 H   0  0  0  0  0  0  0  0  0  0  0  0
   -4.2957   -0.5127   -2.5524 C   0  0  0  0  0  0  0  0  0  0  0  0
   -4.5207    0.6390   -1.7690 C   0  0  0  0  0  0  0  0  0  0  0  0
   -5.5122    0.8562   -1.3506 H   0  0  0  0  0  0  0  0  0  0  0  0
   -3.4593    1.5174   -1.5053 C   0  0  0  0  0  0  0  0  0  0  0  0
   -3.6145    2.4175   -0.8930 H   0  0  0  0  0  0  0  0  0  0  0  0
   -6.5325   -1.2837   -2.2654 C   0  0  0  0  0  0  0  0  0  0  0  0
   -7.1292   -2.1595   -2.5814 H   0  0  0  0  0  0  0  0  0  0  0  0
   -7.0215   -0.3584   -2.6446 H   0  0  0  0  0  0  0  0  0  0  0  0
   -6.5083   -1.2413   -1.1528 H   0  0  0  0  0  0  0  0  0  0  0  0
  1  3  2  0  0  0  0
  1  6  1  0  0  0  0
  2  1  2  0  0  0  0
  4 33  1  0  0  0  0
  4 38  1  0  0  0  0
  5 27  1  0  0  0  0
  7  9  2  0  0  0  0
  7  5  1  0  0  0  0
  8  7  1  0  0  0  0
  9 11  1  0  0  0  0
 10  9  1  0  0  0  0
 11 12  1  0  0  0  0
 11 13  2  0  0  0  0
 13 14  1  0  0  0  0
 14 15  1  0  0  0  0
 14 16  2  0  0  0  0
 16 17  1  0  0  0  0
 18 16  1  0  0  0  0
 18 19  2  0  0  0  0
 19 20  1  0  0  0  0
 21 22  1  0  0  0  0
 21 19  1  0  0  0  0
 23 21  2  0  0  0  0
 24 23  1  0  0  0  0
 25  6  1  6  0  0  0
 25 23  1  0  0  0  0
 25 26  1  0  0  0  0
 26 18  1  0  0  0  0
 27 13  1  0  0  0  0
 27 26  2  0  0  0  0
 28 36  1  0  0  0  0
 28  1  1  0  0  0  0
 29 28  2  0  0  0  0
 30 29  1  0  0  0  0
 31 29  1  0  0  0  0
 31 33  2  0  0  0  0
 32 31  1  0  0  0  0
 33 34  1  0  0  0  0
 34 36  2  0  0  0  0
 34 35  1  0  0  0  0
 36 37  1  0  0  0  0
 38 41  1  0  0  0  0
 39 38  1  0  0  0  0
 40 38  1  0  0  0  0
M  END
