2,3
 OpenBabel05122313053D

 21 20  0  0  1  0  0  0  0  0999 V2000
    1.7185    1.1628    0.0001 O   0  0  0  0  0  0  0  0  0  0  0  0
    0.2755    1.3447   -0.0000 N   0  0  0  0  0  2  0  0  0  0  0  0
    1.2270   -1.0550   -0.0001 N   0  0  0  0  0  2  0  0  0  0  0  0
    1.5157   -2.0404   -0.0002 H   0  0  0  0  0  0  0  0  0  0  0  0
    0.0081    2.6212    0.0000 C   0  0  0  0  0  3  0  0  0  0  0  0
   -1.4148    3.0604   -0.0001 C   0  0  0  0  0  0  0  0  0  0  0  0
   -2.1224    2.2050    0.0002 H   0  0  0  0  0  0  0  0  0  0  0  0
   -1.5929    3.6999   -0.8910 H   0  0  0  0  0  0  0  0  0  0  0  0
   -1.5929    3.7006    0.8904 H   0  0  0  0  0  0  0  0  0  0  0  0
    1.0978    3.6566    0.0001 C   0  0  0  0  0  0  0  0  0  0  0  0
    1.7521    3.5385   -0.8874 H   0  0  0  0  0  0  0  0  0  0  0  0
    1.7512    3.5391    0.8884 H   0  0  0  0  0  0  0  0  0  0  0  0
    0.6631    4.6718   -0.0003 H   0  0  0  0  0  0  0  0  0  0  0  0
    2.1164   -0.1247   -0.0001 C   0  0  2  0  0  3  0  0  0  0  0  0
    3.6108   -0.2734   -0.0003 C   0  0  0  0  0  0  0  0  0  0  0  0
    3.9980    0.2797    0.8828 H   0  0  0  0  0  0  0  0  0  0  0  0
    3.9977    0.2788   -0.8841 H   0  0  0  0  0  0  0  0  0  0  0  0
    4.0913   -1.7223    0.0003 C   0  0  0  0  0  0  0  0  0  0  0  0
    5.1970   -1.7586    0.0002 H   0  0  0  0  0  0  0  0  0  0  0  0
    3.7402   -2.2691   -0.8979 H   0  0  0  0  0  0  0  0  0  0  0  0
    3.7404   -2.2683    0.8991 H   0  0  0  0  0  0  0  0  0  0  0  0
  2  5  1  0  0  0  0
  2  1  1  0  0  0  0
  4  3  1  0  0  0  0
  5 10  1  0  0  0  0
  6  5  1  0  0  0  0
  6  7  1  0  0  0  0
  6  9  1  0  0  0  0
  8  6  1  0  0  0  0
 10 12  1  0  0  0  0
 11 10  1  0  0  0  0
 13 10  1  0  0  0  0
 14  3  1  1  0  0  0
 14  1  1  0  0  0  0
 15 14  1  0  0  0  0
 15 18  1  0  0  0  0
 15 16  1  0  0  0  0
 17 15  1  0  0  0  0
 18 21  1  0  0  0  0
 19 18  1  0  0  0  0
 20 18  1  0  0  0  0
M  END
