1,3
 OpenBabel05122313053D

 44 47  0  0  0  0  0  0  0  0999 V2000
   -0.2111   -0.2568   -0.0121 N   0  0  0  0  0  2  0  0  0  0  0  0
    0.8243   -1.0647    0.0214 N   0  0  0  0  0  0  0  0  0  0  0  0
   -2.4392    1.0980   -0.0650 N   0  0  0  0  0  2  0  0  0  0  0  0
    4.3839   -1.4042    0.0741 N   0  0  0  0  0  0  0  0  0  0  0  0
    2.0724   -0.6216   -0.1881 C   0  0  0  0  0  0  0  0  0  0  0  0
    2.3389    0.7307   -0.5522 C   0  0  0  0  0  0  0  0  0  0  0  0
    3.7102    1.2184   -0.9410 C   0  0  0  0  0  0  0  0  0  0  0  0
    3.6113    2.0110   -1.7092 H   0  0  0  0  0  0  0  0  0  0  0  0
    4.2769    0.3875   -1.3980 H   0  0  0  0  0  0  0  0  0  0  0  0
    4.5498    1.7529    0.2387 C   0  0  0  0  0  0  0  0  0  0  0  0
    4.8421    0.8792    0.8548 H   0  0  0  0  0  0  0  0  0  0  0  0
    5.4888    2.1704   -0.1864 H   0  0  0  0  0  0  0  0  0  0  0  0
    3.8860    2.8110    1.1253 C   0  0  0  0  0  0  0  0  0  0  0  0
    3.0466    2.3550    1.6966 H   0  0  0  0  0  0  0  0  0  0  0  0
    4.6301    3.1089    1.8931 H   0  0  0  0  0  0  0  0  0  0  0  0
    3.3794    4.0709    0.3962 C   0  0  0  0  0  0  0  0  0  0  0  0
    3.9905    4.2500   -0.5170 H   0  0  0  0  0  0  0  0  0  0  0  0
    3.5524    4.9578    1.0412 H   0  0  0  0  0  0  0  0  0  0  0  0
    1.8881    4.0804    0.0312 C   0  0  0  0  0  0  0  0  0  0  0  0
    1.3063    3.9581    0.9711 H   0  0  0  0  0  0  0  0  0  0  0  0
    1.6309    5.0884   -0.3596 H   0  0  0  0  0  0  0  0  0  0  0  0
    1.3976    3.0500   -1.0125 C   0  0  0  0  0  0  0  0  0  0  0  0
    0.4335    3.3946   -1.4305 H   0  0  0  0  0  0  0  0  0  0  0  0
    2.1016    3.0593   -1.8688 H   0  0  0  0  0  0  0  0  0  0  0  0
    1.2287    1.6185   -0.5459 C   0  0  0  0  0  0  0  0  0  0  0  0
   -0.0501    1.1129   -0.1879 C   0  0  0  0  0  0  0  0  0  0  0  0
   -1.3129    1.8746   -0.0447 C   0  0  0  0  0  0  0  0  0  0  0  0
   -3.6630    1.6505    0.0373 C   0  0  0  0  0  0  0  0  0  0  0  0
   -4.4939    0.9234    0.0055 H   0  0  0  0  0  0  0  0  0  0  0  0
   -3.8441    3.0275    0.1943 C   0  0  0  0  0  0  0  0  0  0  0  0
   -4.8591    3.4429    0.2691 H   0  0  0  0  0  0  0  0  0  0  0  0
   -2.7064    3.8419    0.2881 C   0  0  0  0  0  0  0  0  0  0  0  0
   -2.8003    4.9242    0.4609 H   0  0  0  0  0  0  0  0  0  0  0  0
   -1.4360    3.2642    0.1739 C   0  0  0  0  0  0  0  0  0  0  0  0
   -0.5513    3.8945    0.2956 H   0  0  0  0  0  0  0  0  0  0  0  0
    3.0819   -1.7230   -0.0679 C   0  0  0  0  0  0  0  0  0  0  0  0
    5.2789   -2.3931    0.2012 C   0  0  0  0  0  0  0  0  0  0  0  0
    6.3329   -2.0838    0.3178 H   0  0  0  0  0  0  0  0  0  0  0  0
    4.9349   -3.7535    0.1972 C   0  0  0  0  0  0  0  0  0  0  0  0
    5.7108   -4.5255    0.3071 H   0  0  0  0  0  0  0  0  0  0  0  0
    3.5804   -4.0897    0.0525 C   0  0  0  0  0  0  0  0  0  0  0  0
    3.2592   -5.1424    0.0437 H   0  0  0  0  0  0  0  0  0  0  0  0
    2.6364   -3.0673   -0.0812 C   0  0  0  0  0  0  0  0  0  0  0  0
    1.5634   -3.2753   -0.1872 H   0  0  0  0  0  0  0  0  0  0  0  0
  1  2  1  0  0  0  0
  3 27  1  0  0  0  0
  3 28  1  0  0  0  0
  4 37  1  0  0  0  0
  5 36  1  0  0  0  0
  5  2  2  0  0  0  0
  6 25  2  0  0  0  0
  6  5  1  0  0  0  0
  7  6  1  0  0  0  0
  7 10  1  0  0  0  0
  8  7  1  0  0  0  0
  9  7  1  0  0  0  0
 10 11  1  0  0  0  0
 10 13  1  0  0  0  0
 12 10  1  0  0  0  0
 13 14  1  0  0  0  0
 13 15  1  0  0  0  0
 16 18  1  0  0  0  0
 16 13  1  0  0  0  0
 17 16  1  0  0  0  0
 19 16  1  0  0  0  0
 19 20  1  0  0  0  0
 21 19  1  0  0  0  0
 22 25  1  0  0  0  0
 22 19  1  0  0  0  0
 23 22  1  0  0  0  0
 24 22  1  0  0  0  0
 25 26  1  0  0  0  0
 26 27  2  0  0  0  0
 26  1  1  0  0  0  0
 27 34  1  0  0  0  0
 28 30  2  0  0  0  0
 29 28  1  0  0  0  0
 30 31  1  0  0  0  0
 30 32  1  0  0  0  0
 32 33  1  0  0  0  0
 34 32  2  0  0  0  0
 34 35  1  0  0  0  0
 36  4  2  0  0  0  0
 37 38  1  0  0  0  0
 39 37  2  0  0  0  0
 39 40  1  0  0  0  0
 41 39  1  0  0  0  0
 42 41  1  0  0  0  0
 43 36  1  0  0  0  0
 43 41  2  0  0  0  0
 44 43  1  0  0  0  0
M  END
