2,5
 OpenBabel05122313053D

 36 39  0  0  1  0  0  0  0  0999 V2000
    0.0840   -0.8527   -2.5668 N   0  0  0  0  0  0  0  0  0  0  0  0
   -1.6270   -0.9497   -0.3106 N   0  0  0  0  0  2  0  0  0  0  0  0
   -2.9463   -2.4952   -1.2076 N   0  0  0  0  0  0  0  0  0  0  0  0
   -3.2778   -3.2150   -1.8516 H   0  0  0  0  0  0  0  0  0  0  0  0
    1.7502   -0.6907   -0.3356 N   0  0  0  0  0  2  0  0  0  0  0  0
    3.4498   -1.7527   -1.2953 N   0  0  0  0  0  0  0  0  0  0  0  0
    4.0185   -2.1892   -2.0225 H   0  0  0  0  0  0  0  0  0  0  0  0
   -0.6822   -2.0761   -2.3166 C   0  0  0  0  0  0  0  0  0  0  0  0
    0.0101   -2.8359   -1.8898 H   0  0  0  0  0  0  0  0  0  0  0  0
   -1.1086   -2.5316   -3.2397 H   0  0  0  0  0  0  0  0  0  0  0  0
   -1.7640   -1.8222   -1.3052 C   0  0  2  0  0  3  0  0  0  0  0  0
   -3.6184   -2.0379   -0.0735 C   0  0  0  0  0  0  0  0  0  0  0  0
   -4.8525   -2.3721    0.5037 C   0  0  0  0  0  0  0  0  0  0  0  0
   -5.5176   -3.1304    0.0669 H   0  0  0  0  0  0  0  0  0  0  0  0
   -5.1922   -1.6886    1.6777 C   0  0  0  0  0  0  0  0  0  0  0  0
   -6.1489   -1.9176    2.1694 H   0  0  0  0  0  0  0  0  0  0  0  0
   -4.3352   -0.7182    2.2557 C   0  0  0  0  0  0  0  0  0  0  0  0
   -4.6441   -0.2223    3.1874 H   0  0  0  0  0  0  0  0  0  0  0  0
   -3.1067   -0.3824    1.6784 C   0  0  0  0  0  0  0  0  0  0  0  0
   -2.4143    0.3456    2.1261 H   0  0  0  0  0  0  0  0  0  0  0  0
   -2.7610   -1.0538    0.4922 C   0  0  0  0  0  0  0  0  0  0  0  0
    1.5143   -1.0305   -2.7975 C   0  0  0  0  0  0  0  0  0  0  0  0
    1.8922   -0.1195   -3.3106 H   0  0  0  0  0  0  0  0  0  0  0  0
    1.7675   -1.8900   -3.4644 H   0  0  0  0  0  0  0  0  0  0  0  0
    2.2277   -1.1746   -1.4799 C   0  0  2  0  0  3  0  0  0  0  0  0
    3.7950   -1.6295    0.0510 C   0  0  0  0  0  0  0  0  0  0  0  0
    4.9179   -2.0332    0.7886 C   0  0  0  0  0  0  0  0  0  0  0  0
    5.7662   -2.5569    0.3259 H   0  0  0  0  0  0  0  0  0  0  0  0
    4.9014   -1.7294    2.1556 C   0  0  0  0  0  0  0  0  0  0  0  0
    5.7603   -2.0234    2.7765 H   0  0  0  0  0  0  0  0  0  0  0  0
    3.8122   -1.0535    2.7615 C   0  0  0  0  0  0  0  0  0  0  0  0
    3.8530   -0.8369    3.8389 H   0  0  0  0  0  0  0  0  0  0  0  0
    2.6915   -0.6525    2.0273 C   0  0  0  0  0  0  0  0  0  0  0  0
    1.8380   -0.1209    2.4759 H   0  0  0  0  0  0  0  0  0  0  0  0
    2.6990   -0.9518    0.6528 C   0  0  0  0  0  0  0  0  0  0  0  0
   -0.3446   -0.3027   -3.3169 H   0  0  0  0  0  0  0  0  0  0  0  0
  1  8  1  0  0  0  0
  2 21  1  0  0  0  0
  3 12  1  0  0  0  0
  4  3  1  0  0  0  0
  5 35  1  0  0  0  0
  6 26  1  0  0  0  0
  7  6  1  0  0  0  0
  8  9  1  0  0  0  0
 10  8  1  0  0  0  0
 11  8  1  1  0  0  0
 11  3  1  0  0  0  0
 11  2  1  0  0  0  0
 12 21  2  0  0  0  0
 12 13  1  0  0  0  0
 13 15  2  0  0  0  0
 14 13  1  0  0  0  0
 15 16  1  0  0  0  0
 15 17  1  0  0  0  0
 17 18  1  0  0  0  0
 19 20  1  0  0  0  0
 19 17  2  0  0  0  0
 21 19  1  0  0  0  0
 22  1  1  0  0  0  0
 23 22  1  0  0  0  0
 24 22  1  0  0  0  0
 25 22  1  6  0  0  0
 25  6  1  0  0  0  0
 25  5  1  0  0  0  0
 26 35  2  0  0  0  0
 26 27  1  0  0  0  0
 27 29  2  0  0  0  0
 28 27  1  0  0  0  0
 29 31  1  0  0  0  0
 29 30  1  0  0  0  0
 31 32  1  0  0  0  0
 33 34  1  0  0  0  0
 33 31  2  0  0  0  0
 35 33  1  0  0  0  0
 36  1  1  0  0  0  0
M  END
