1,35
 OpenBabel05122313053D

 68 75  0  0  0  0  0  0  0  0999 V2000
   -1.4100   -1.4153   -1.4239 N   0  0  0  0  0  2  0  0  0  0  0  0
   -2.9698    1.1736    0.4458 N   0  0  0  0  0  0  0  0  0  0  0  0
   -1.6058   -2.2923   -2.4348 C   0  0  0  0  0  3  0  0  0  0  0  0
   -0.9990   -3.2066   -2.3878 H   0  0  0  0  0  0  0  0  0  0  0  0
   -2.5108   -2.0428   -3.4686 C   0  0  0  0  0  0  0  0  0  0  0  0
   -2.6458   -2.7915   -4.2613 H   0  0  0  0  0  0  0  0  0  0  0  0
   -3.2180   -0.8319   -3.4697 C   0  0  0  0  0  0  0  0  0  0  0  0
   -3.9318   -0.5972   -4.2730 H   0  0  0  0  0  0  0  0  0  0  0  0
   -2.9904    0.0843   -2.4390 C   0  0  0  0  0  0  0  0  0  0  0  0
   -3.5109    1.0507   -2.4143 H   0  0  0  0  0  0  0  0  0  0  0  0
   -2.0758   -0.2157   -1.4103 C   0  0  0  0  0  0  0  0  0  0  0  0
   -1.8609    0.7163   -0.2850 C   0  0  0  0  0  0  0  0  0  0  0  0
   -0.6893    1.2653    0.2628 C   0  0  0  0  0  0  0  0  0  0  0  0
   -1.1007    2.0629    1.3893 C   0  0  0  0  0  0  0  0  0  0  0  0
   -0.3856    2.8402    2.3270 C   0  0  0  0  0  0  0  0  0  0  0  0
    0.7092    2.9217    2.2498 H   0  0  0  0  0  0  0  0  0  0  0  0
   -1.0938    3.4808    3.3451 C   0  0  0  0  0  0  0  0  0  0  0  0
   -0.5542    4.0855    4.0896 H   0  0  0  0  0  0  0  0  0  0  0  0
   -2.5044    3.3602    3.4418 C   0  0  0  0  0  0  0  0  0  0  0  0
   -3.0337    3.8677    4.2624 H   0  0  0  0  0  0  0  0  0  0  0  0
   -3.2390    2.6084    2.5192 C   0  0  0  0  0  0  0  0  0  0  0  0
   -4.3309    2.5104    2.5981 H   0  0  0  0  0  0  0  0  0  0  0  0
   -2.5228    1.9754    1.4873 C   0  0  0  0  0  0  0  0  0  0  0  0
   -4.3201    0.7429    0.2859 C   0  0  0  0  0  0  0  0  0  0  0  0
   -4.6458   -0.6212    0.4010 C   0  0  0  0  0  0  0  0  0  0  0  0
   -3.8476   -1.3360    0.6585 H   0  0  0  0  0  0  0  0  0  0  0  0
   -5.9755   -1.0260    0.2185 C   0  0  0  0  0  0  0  0  0  0  0  0
   -6.2318   -2.0926    0.3071 H   0  0  0  0  0  0  0  0  0  0  0  0
   -6.9782   -0.0812   -0.0557 C   0  0  0  0  0  0  0  0  0  0  0  0
   -8.0209   -0.4059   -0.1918 H   0  0  0  0  0  0  0  0  0  0  0  0
   -6.6488    1.2808   -0.1492 C   0  0  0  0  0  0  0  0  0  0  0  0
   -7.4305    2.0260   -0.3611 H   0  0  0  0  0  0  0  0  0  0  0  0
   -5.3192    1.6965    0.0139 C   0  0  0  0  0  0  0  0  0  0  0  0
   -5.0420    2.7573   -0.0763 H   0  0  0  0  0  0  0  0  0  0  0  0
    1.4100   -1.4152    1.4239 N   0  0  0  0  0  2  0  0  0  0  0  0
    2.9698    1.1735   -0.4459 N   0  0  0  0  0  0  0  0  0  0  0  0
    1.6058   -2.2922    2.4349 C   0  0  0  0  0  3  0  0  0  0  0  0
    0.9990   -3.2064    2.3880 H   0  0  0  0  0  0  0  0  0  0  0  0
    2.5108   -2.0426    3.4687 C   0  0  0  0  0  0  0  0  0  0  0  0
    2.6458   -2.7912    4.2615 H   0  0  0  0  0  0  0  0  0  0  0  0
    3.2180   -0.8317    3.4698 C   0  0  0  0  0  0  0  0  0  0  0  0
    3.9318   -0.5969    4.2731 H   0  0  0  0  0  0  0  0  0  0  0  0
    2.9904    0.0844    2.4390 C   0  0  0  0  0  0  0  0  0  0  0  0
    3.5108    1.0508    2.4142 H   0  0  0  0  0  0  0  0  0  0  0  0
    2.0758   -0.2156    1.4103 C   0  0  0  0  0  0  0  0  0  0  0  0
    1.8609    0.7163    0.2850 C   0  0  0  0  0  0  0  0  0  0  0  0
    0.6893    1.2652   -0.2629 C   0  0  0  0  0  0  0  0  0  0  0  0
    1.1007    2.0627   -1.3894 C   0  0  0  0  0  0  0  0  0  0  0  0
    0.3857    2.8400   -2.3273 C   0  0  0  0  0  0  0  0  0  0  0  0
   -0.7091    2.9215   -2.2501 H   0  0  0  0  0  0  0  0  0  0  0  0
    1.0938    3.4805   -3.3454 C   0  0  0  0  0  0  0  0  0  0  0  0
    0.5543    4.0851   -4.0899 H   0  0  0  0  0  0  0  0  0  0  0  0
    2.5044    3.3599   -3.4420 C   0  0  0  0  0  0  0  0  0  0  0  0
    3.0337    3.8673   -4.2627 H   0  0  0  0  0  0  0  0  0  0  0  0
    3.2390    2.6082   -2.5193 C   0  0  0  0  0  0  0  0  0  0  0  0
    4.3309    2.5102   -2.5982 H   0  0  0  0  0  0  0  0  0  0  0  0
    2.5228    1.9753   -1.4875 C   0  0  0  0  0  0  0  0  0  0  0  0
    4.3201    0.7429   -0.2859 C   0  0  0  0  0  0  0  0  0  0  0  0
    4.6458   -0.6212   -0.4010 C   0  0  0  0  0  0  0  0  0  0  0  0
    3.8477   -1.3361   -0.6584 H   0  0  0  0  0  0  0  0  0  0  0  0
    5.9755   -1.0260   -0.2183 C   0  0  0  0  0  0  0  0  0  0  0  0
    6.2318   -2.0927   -0.3069 H   0  0  0  0  0  0  0  0  0  0  0  0
    6.9782   -0.0812    0.0558 C   0  0  0  0  0  0  0  0  0  0  0  0
    8.0209   -0.4058    0.1919 H   0  0  0  0  0  0  0  0  0  0  0  0
    6.6488    1.2808    0.1492 C   0  0  0  0  0  0  0  0  0  0  0  0
    7.4305    2.0260    0.3611 H   0  0  0  0  0  0  0  0  0  0  0  0
    5.3192    1.6965   -0.0139 C   0  0  0  0  0  0  0  0  0  0  0  0
    5.0420    2.7573    0.0761 H   0  0  0  0  0  0  0  0  0  0  0  0
  1 11  1  0  0  0  0
  2 23  1  0  0  0  0
  3  4  1  0  0  0  0
  3  1  1  0  0  0  0
  5  3  1  0  0  0  0
  6  5  1  0  0  0  0
  7  5  2  0  0  0  0
  7  9  1  0  0  0  0
  8  7  1  0  0  0  0
  9 10  1  0  0  0  0
  9 11  2  0  0  0  0
 11 12  1  0  0  0  0
 12 13  2  0  0  0  0
 12  2  1  0  0  0  0
 13 14  1  0  0  0  0
 14 23  2  0  0  0  0
 14 15  1  0  0  0  0
 15 17  2  0  0  0  0
 16 15  1  0  0  0  0
 17 19  1  0  0  0  0
 17 18  1  0  0  0  0
 19 20  1  0  0  0  0
 21 22  1  0  0  0  0
 21 19  2  0  0  0  0
 23 21  1  0  0  0  0
 24 25  1  0  0  0  0
 24  2  1  0  0  0  0
 25 26  1  0  0  0  0
 27 28  1  0  0  0  0
 27 25  2  0  0  0  0
 29 27  1  0  0  0  0
 30 29  1  0  0  0  0
 31 29  2  0  0  0  0
 31 33  1  0  0  0  0
 32 31  1  0  0  0  0
 33 24  2  0  0  0  0
 34 33  1  0  0  0  0
 35 37  1  0  0  0  0
 36 58  1  0  0  0  0
 36 46  1  0  0  0  0
 37 39  1  0  0  0  0
 38 37  1  0  0  0  0
 39 41  2  0  0  0  0
 39 40  1  0  0  0  0
 41 42  1  0  0  0  0
 43 41  1  0  0  0  0
 44 43  1  0  0  0  0
 45 35  1  0  0  0  0
 45 43  2  0  0  0  0
 46 45  1  0  0  0  0
 47 13  1  0  0  0  0
 47 46  2  0  0  0  0
 48 47  1  0  0  0  0
 49 50  1  0  0  0  0
 49 48  2  0  0  0  0
 51 49  1  0  0  0  0
 52 51  1  0  0  0  0
 53 51  2  0  0  0  0
 53 55  1  0  0  0  0
 54 53  1  0  0  0  0
 55 57  2  0  0  0  0
 56 55  1  0  0  0  0
 57 48  1  0  0  0  0
 57 36  1  0  0  0  0
 58 67  1  0  0  0  0
 59 58  2  0  0  0  0
 59 61  1  0  0  0  0
 60 59  1  0  0  0  0
 61 63  2  0  0  0  0
 62 61  1  0  0  0  0
 63 65  1  0  0  0  0
 63 64  1  0  0  0  0
 65 66  1  0  0  0  0
 67 68  1  0  0  0  0
 67 65  2  0  0  0  0
M  END
