1,5
 OpenBabel05122313053D

 52 54  0  0  1  0  0  0  0  0999 V2000
   -0.9643   -1.9206   -0.2443 N   0  0  0  0  0  2  0  0  0  0  0  0
    0.3832   -1.7838   -0.0946 N   0  0  0  0  0  0  0  0  0  0  0  0
    1.3330    0.3730   -0.5785 N   0  0  0  0  0  0  0  0  0  0  0  0
   -0.6785    1.7091   -1.1641 N   0  0  0  0  0  0  0  0  0  0  0  0
   -1.6274    1.3708   -0.2532 N   0  0  0  0  0  2  0  0  0  0  0  0
   -2.5379   -3.6076   -1.1750 C   0  0  0  0  0  0  0  0  0  0  0  0
   -2.8677   -4.3076   -0.3786 H   0  0  0  0  0  0  0  0  0  0  0  0
   -2.5481   -4.1637   -2.1322 H   0  0  0  0  0  0  0  0  0  0  0  0
   -3.2739   -2.7791   -1.2084 H   0  0  0  0  0  0  0  0  0  0  0  0
   -1.1677   -3.0920   -0.8824 C   0  0  2  0  0  3  0  0  0  0  0  0
    0.0860   -3.6964   -1.1573 C   0  0  0  0  0  0  0  0  0  0  0  0
    0.2589   -4.6550   -1.6572 H   0  0  0  0  0  0  0  0  0  0  0  0
    1.0596   -2.8361   -0.6478 C   0  0  0  0  0  0  0  0  0  0  0  0
    2.5481   -2.9184   -0.6327 C   0  0  0  0  0  0  0  0  0  0  0  0
    3.0064   -2.0195   -1.0921 H   0  0  0  0  0  0  0  0  0  0  0  0
    2.8861   -3.8140   -1.1846 H   0  0  0  0  0  0  0  0  0  0  0  0
    2.9448   -2.9846    0.4022 H   0  0  0  0  0  0  0  0  0  0  0  0
    0.9315   -0.5680    0.4655 C   0  0  0  0  0  0  0  0  0  0  0  0
    1.8412   -0.8282    1.0426 H   0  0  0  0  0  0  0  0  0  0  0  0
    0.1767   -0.1849    1.1930 H   0  0  0  0  0  0  0  0  0  0  0  0
    0.3483    0.7295   -1.5611 C   0  0  0  0  0  0  0  0  0  0  0  0
   -0.1851   -0.1851   -1.8858 H   0  0  0  0  0  0  0  0  0  0  0  0
    0.8539    1.1644   -2.4448 H   0  0  0  0  0  0  0  0  0  0  0  0
   -3.4297    2.4881    1.0286 C   0  0  0  0  0  0  0  0  0  0  0  0
   -4.2576    1.8555    0.6441 H   0  0  0  0  0  0  0  0  0  0  0  0
   -3.7998    3.5130    1.2135 H   0  0  0  0  0  0  0  0  0  0  0  0
   -3.0995    2.0274    1.9834 H   0  0  0  0  0  0  0  0  0  0  0  0
   -2.2988    2.4991    0.0556 C   0  0  2  0  0  3  0  0  0  0  0  0
   -1.7556    3.5806   -0.6819 C   0  0  0  0  0  0  0  0  0  0  0  0
   -2.0901    4.6230   -0.6670 H   0  0  0  0  0  0  0  0  0  0  0  0
   -0.7191    3.0498   -1.4514 C   0  0  0  0  0  0  0  0  0  0  0  0
    0.2029    3.7223   -2.4165 C   0  0  0  0  0  0  0  0  0  0  0  0
    1.2583    3.7124   -2.0719 H   0  0  0  0  0  0  0  0  0  0  0  0
   -0.0961    4.7801   -2.5333 H   0  0  0  0  0  0  0  0  0  0  0  0
    0.1740    3.2537   -3.4218 H   0  0  0  0  0  0  0  0  0  0  0  0
    1.6715    2.2973    1.0378 C   0  0  0  0  0  0  0  0  0  0  0  0
    0.7451    2.8118    0.7200 H   0  0  0  0  0  0  0  0  0  0  0  0
    2.4042    3.0687    1.3469 H   0  0  0  0  0  0  0  0  0  0  0  0
    1.4119    1.6962    1.9316 H   0  0  0  0  0  0  0  0  0  0  0  0
    2.2437    1.4350   -0.0999 C   0  0  1  0  0  0  0  0  0  0  0  0
    2.4021    2.0933   -0.9819 H   0  0  0  0  0  0  0  0  0  0  0  0
    3.6038    0.8065    0.2089 C   0  0  0  0  0  0  0  0  0  0  0  0
    4.1053    0.6617    1.5154 C   0  0  0  0  0  0  0  0  0  0  0  0
    3.5321    1.0472    2.3710 H   0  0  0  0  0  0  0  0  0  0  0  0
    5.3361    0.0220    1.7447 C   0  0  0  0  0  0  0  0  0  0  0  0
    5.7085   -0.0877    2.7746 H   0  0  0  0  0  0  0  0  0  0  0  0
    6.0868   -0.4728    0.6693 C   0  0  0  0  0  0  0  0  0  0  0  0
    7.0521   -0.9696    0.8493 H   0  0  0  0  0  0  0  0  0  0  0  0
    5.6017   -0.3238   -0.6417 C   0  0  0  0  0  0  0  0  0  0  0  0
    6.1886   -0.7002   -1.4936 H   0  0  0  0  0  0  0  0  0  0  0  0
    4.3705    0.3058   -0.8644 C   0  0  0  0  0  0  0  0  0  0  0  0
    3.9840    0.4121   -1.8909 H   0  0  0  0  0  0  0  0  0  0  0  0
  1  2  1  0  0  0  0
  2 18  1  0  0  0  0
  3 40  1  0  0  0  0
  3 18  1  0  0  0  0
  4  5  1  0  0  0  0
  5 28  1  0  0  0  0
  6  7  1  0  0  0  0
  8  6  1  0  0  0  0
  9  6  1  0  0  0  0
 10  6  1  1  0  0  0
 10  1  1  0  0  0  0
 11 10  1  0  0  0  0
 11 13  2  0  0  0  0
 12 11  1  0  0  0  0
 13 14  1  0  0  0  0
 13  2  1  0  0  0  0
 14 17  1  0  0  0  0
 15 14  1  0  0  0  0
 16 14  1  0  0  0  0
 18 19  1  0  0  0  0
 18 20  1  0  0  0  0
 21  4  1  0  0  0  0
 21  3  1  0  0  0  0
 22 21  1  0  0  0  0
 23 21  1  0  0  0  0
 24 26  1  0  0  0  0
 24 27  1  0  0  0  0
 25 24  1  0  0  0  0
 28 24  1  6  0  0  0
 29 30  1  0  0  0  0
 29 28  1  0  0  0  0
 31  4  1  0  0  0  0
 31 29  2  0  0  0  0
 32 33  1  0  0  0  0
 32 31  1  0  0  0  0
 34 32  1  0  0  0  0
 35 32  1  0  0  0  0
 36 38  1  0  0  0  0
 36 39  1  0  0  0  0
 37 36  1  0  0  0  0
 40 41  1  6  0  0  0
 40 42  1  0  0  0  0
 40 36  1  0  0  0  0
 42 43  1  0  0  0  0
 43 45  2  0  0  0  0
 43 44  1  0  0  0  0
 45 46  1  0  0  0  0
 47 48  1  0  0  0  0
 47 45  1  0  0  0  0
 49 47  2  0  0  0  0
 50 49  1  0  0  0  0
 51 49  1  0  0  0  0
 51 42  2  0  0  0  0
 52 51  1  0  0  0  0
M  END
