1,4
 OpenBabel05122313053D

 28 29  0  0  0  0  0  0  0  0999 V2000
   -2.1170   -0.5947    0.3693 N   0  0  0  0  0  2  0  0  0  0  0  0
   -4.1804    0.1809    0.1640 N   0  0  0  0  0  0  0  0  0  0  0  0
   -2.7389    2.4820   -1.6098 N   0  0  0  0  0  0  0  0  0  0  0  0
   -0.8831    1.4800   -0.9487 N   0  0  0  0  0  2  0  0  0  0  0  0
   -2.9579   -1.4387    1.0628 C   0  0  0  0  0  0  0  0  0  0  0  0
   -4.2695   -0.9661    0.9435 C   0  0  0  0  0  0  0  0  0  0  0  0
   -2.8682    0.3789   -0.1598 C   0  0  0  0  0  0  0  0  0  0  0  0
   -2.2218    1.4404   -0.8959 C   0  0  0  0  0  0  0  0  0  0  0  0
   -1.6861    3.2178   -2.1461 C   0  0  0  0  0  0  0  0  0  0  0  0
   -0.5271    2.5681   -1.7179 C   0  0  0  0  0  0  0  0  0  0  0  0
   -2.4574   -2.6445    1.7867 C   0  0  0  0  0  0  0  0  0  0  0  0
   -5.5625   -1.4776    1.4762 C   0  0  0  0  0  0  0  0  0  0  0  0
   -1.9024    4.4342   -2.9778 C   0  0  0  0  0  0  0  0  0  0  0  0
    0.8999    2.9160   -1.9788 C   0  0  0  0  0  0  0  0  0  0  0  0
   -2.3162   -3.5028    1.0952 H   0  0  0  0  0  0  0  0  0  0  0  0
   -1.4750   -2.4249    2.2504 H   0  0  0  0  0  0  0  0  0  0  0  0
   -3.1653   -2.9667    2.5730 H   0  0  0  0  0  0  0  0  0  0  0  0
   -5.3804   -2.3353    2.1489 H   0  0  0  0  0  0  0  0  0  0  0  0
   -6.1052   -0.7050    2.0601 H   0  0  0  0  0  0  0  0  0  0  0  0
   -6.2396   -1.8273    0.6680 H   0  0  0  0  0  0  0  0  0  0  0  0
   -0.9343    4.8223   -3.3433 H   0  0  0  0  0  0  0  0  0  0  0  0
   -2.5341    4.2245   -3.8664 H   0  0  0  0  0  0  0  0  0  0  0  0
   -2.3900    5.2497   -2.4026 H   0  0  0  0  0  0  0  0  0  0  0  0
    1.4050    3.2464   -1.0484 H   0  0  0  0  0  0  0  0  0  0  0  0
    1.4561    2.0337   -2.3528 H   0  0  0  0  0  0  0  0  0  0  0  0
    0.9885    3.7272   -2.7245 H   0  0  0  0  0  0  0  0  0  0  0  0
   -4.9697    0.7843   -0.0687 H   0  0  0  0  0  0  0  0  0  0  0  0
   -3.7262    2.6935   -1.7561 H   0  0  0  0  0  0  0  0  0  0  0  0
  1  5  1  0  0  0  0
  2  6  1  0  0  0  0
  3  8  1  0  0  0  0
  4  8  1  0  0  0  0
  5 11  1  0  0  0  0
  6  5  2  0  0  0  0
  6 12  1  0  0  0  0
  7  2  1  0  0  0  0
  7  1  1  0  0  0  0
  8  7  2  0  0  0  0
  9 10  2  0  0  0  0
  9  3  1  0  0  0  0
 10  4  1  0  0  0  0
 11 16  1  0  0  0  0
 11 17  1  0  0  0  0
 12 19  1  0  0  0  0
 12 18  1  0  0  0  0
 13 23  1  0  0  0  0
 13  9  1  0  0  0  0
 14 10  1  0  0  0  0
 14 24  1  0  0  0  0
 15 11  1  0  0  0  0
 20 12  1  0  0  0  0
 21 13  1  0  0  0  0
 22 13  1  0  0  0  0
 25 14  1  0  0  0  0
 26 14  1  0  0  0  0
 27  2  1  0  0  0  0
 28  3  1  0  0  0  0
M  END
