1,2
 OpenBabel05122313053D

 42 44  0  0  0  0  0  0  0  0999 V2000
   -2.0341   -0.6866    0.1515 N   0  0  0  0  0  2  0  0  0  0  0  0
    0.6807   -1.2693    0.2223 N   0  0  0  0  0  2  0  0  0  0  0  0
   -1.6244   -1.9365   -0.0703 C   0  0  0  0  0  0  0  0  0  0  0  0
   -2.5313   -2.9947   -0.3663 C   0  0  0  0  0  0  0  0  0  0  0  0
   -2.1462   -4.0106   -0.5383 H   0  0  0  0  0  0  0  0  0  0  0  0
   -3.8849   -2.7122   -0.4435 C   0  0  0  0  0  0  0  0  0  0  0  0
   -4.6127   -3.5016   -0.6876 H   0  0  0  0  0  0  0  0  0  0  0  0
   -4.3475   -1.3901   -0.1980 C   0  0  0  0  0  0  0  0  0  0  0  0
   -5.7210   -1.0196   -0.2431 C   0  0  0  0  0  3  0  0  0  0  0  0
   -6.4719   -1.7850   -0.4929 H   0  0  0  0  0  0  0  0  0  0  0  0
   -6.0999    0.2865    0.0287 C   0  0  0  0  0  0  0  0  0  0  0  0
   -7.1630    0.5682   -0.0082 H   0  0  0  0  0  0  0  0  0  0  0  0
   -5.1257    1.2681    0.3666 C   0  0  0  0  0  0  0  0  0  0  0  0
   -5.4487    2.2944    0.5967 H   0  0  0  0  0  0  0  0  0  0  0  0
   -3.7785    0.9492    0.4162 C   0  0  0  0  0  0  0  0  0  0  0  0
   -3.0150    1.6884    0.7106 H   0  0  0  0  0  0  0  0  0  0  0  0
   -3.3593   -0.3827    0.1209 C   0  0  0  0  0  0  0  0  0  0  0  0
   -0.1771   -2.2086    0.0168 C   0  0  0  0  0  3  0  0  0  0  0  0
    0.1405   -3.2697   -0.0670 H   0  0  0  0  0  0  0  0  0  0  0  0
    2.0668   -1.5378    0.3055 C   0  0  0  0  0  0  0  0  0  0  0  0
    2.7266   -1.1602    1.5080 C   0  0  0  0  0  0  0  0  0  0  0  0
    4.1057   -1.4008    1.6096 C   0  0  0  0  0  0  0  0  0  0  0  0
    4.6208   -1.1303    2.5448 H   0  0  0  0  0  0  0  0  0  0  0  0
    4.8263   -1.9601    0.5446 C   0  0  0  0  0  0  0  0  0  0  0  0
    5.9081   -2.1377    0.6407 H   0  0  0  0  0  0  0  0  0  0  0  0
    4.1654   -2.2780   -0.6470 C   0  0  0  0  0  0  0  0  0  0  0  0
    4.7329   -2.6871   -1.4981 H   0  0  0  0  0  0  0  0  0  0  0  0
    2.7786   -2.0790   -0.7996 C   0  0  0  0  0  0  0  0  0  0  0  0
    1.9671   -0.5417    2.6587 C   0  0  0  0  0  0  0  0  0  0  0  0
    2.6994   -0.0449    3.3279 H   0  0  0  0  0  0  0  0  0  0  0  0
    1.3054    0.2697    2.2850 H   0  0  0  0  0  0  0  0  0  0  0  0
    1.1318   -1.5367    3.4774 C   0  0  0  0  0  0  0  0  0  0  0  0
    1.7652   -2.3410    3.9040 H   0  0  0  0  0  0  0  0  0  0  0  0
    0.3479   -2.0177    2.8588 H   0  0  0  0  0  0  0  0  0  0  0  0
    0.6195   -1.0190    4.3128 H   0  0  0  0  0  0  0  0  0  0  0  0
    2.1644   -2.2920   -2.1690 C   0  0  0  0  0  0  0  0  0  0  0  0
    2.6633   -3.1661   -2.6384 H   0  0  0  0  0  0  0  0  0  0  0  0
    1.0909   -2.5553   -2.1055 H   0  0  0  0  0  0  0  0  0  0  0  0
    2.3201   -1.0575   -3.0726 C   0  0  0  0  0  0  0  0  0  0  0  0
    1.9540   -1.2743   -4.0965 H   0  0  0  0  0  0  0  0  0  0  0  0
    1.7339   -0.1972   -2.6907 H   0  0  0  0  0  0  0  0  0  0  0  0
    3.3846   -0.7543   -3.1436 H   0  0  0  0  0  0  0  0  0  0  0  0
  2 20  1  0  0  0  0
  3 18  1  0  0  0  0
  3  1  1  0  0  0  0
  4  3  2  0  0  0  0
  5  4  1  0  0  0  0
  6  4  1  0  0  0  0
  6  8  2  0  0  0  0
  7  6  1  0  0  0  0
  8 17  1  0  0  0  0
  9  8  1  0  0  0  0
  9 11  1  0  0  0  0
 10  9  1  0  0  0  0
 11 13  2  0  0  0  0
 12 11  1  0  0  0  0
 13 15  1  0  0  0  0
 13 14  1  0  0  0  0
 15 16  1  0  0  0  0
 17  1  1  0  0  0  0
 17 15  2  0  0  0  0
 18  2  1  0  0  0  0
 19 18  1  0  0  0  0
 20 21  1  0  0  0  0
 21 22  2  0  0  0  0
 21 29  1  0  0  0  0
 22 23  1  0  0  0  0
 24 25  1  0  0  0  0
 24 22  1  0  0  0  0
 26 24  2  0  0  0  0
 27 26  1  0  0  0  0
 28 26  1  0  0  0  0
 28 20  2  0  0  0  0
 29 30  1  0  0  0  0
 29 32  1  0  0  0  0
 31 29  1  0  0  0  0
 32 33  1  0  0  0  0
 32 35  1  0  0  0  0
 34 32  1  0  0  0  0
 36 38  1  0  0  0  0
 36 28  1  0  0  0  0
 37 36  1  0  0  0  0
 39 41  1  0  0  0  0
 39 36  1  0  0  0  0
 40 39  1  0  0  0  0
 42 39  1  0  0  0  0
M  END
