3,5
 OpenBabel05122313053D

 27 28  0  0  1  0  0  0  0  0999 V2000
   -2.4352    0.7355   -1.3570 S   0  0  0  0  0  0  0  0  0  0  0  0
   -2.2672   -0.8950    1.2750 S   0  0  0  0  0  0  0  0  0  0  0  0
   -0.3223    1.6618    0.1679 N   0  0  0  0  0  2  0  0  0  0  0  0
   -2.0399    3.0806    0.0568 N   0  0  0  0  0  0  0  0  0  0  0  0
   -0.1775   -1.6738   -0.3716 N   0  0  0  0  0  2  0  0  0  0  0  0
   -1.7690   -3.2198   -0.1290 N   0  0  0  0  0  0  0  0  0  0  0  0
   -1.5434    1.8675   -0.3652 C   0  0  2  0  0  3  0  0  0  0  0  0
   -1.1029    3.6494    0.8877 C   0  0  0  0  0  0  0  0  0  0  0  0
   -0.0447    2.7627    0.9506 C   0  0  0  0  0  0  0  0  0  0  0  0
   -3.3192    3.6726   -0.3113 C   0  0  0  0  0  0  0  0  0  0  0  0
   -1.3441   -1.9619    0.2410 C   0  0  2  0  0  3  0  0  0  0  0  0
   -0.8420   -3.7326   -1.0058 C   0  0  0  0  0  0  0  0  0  0  0  0
    0.1376   -2.7693   -1.1491 C   0  0  0  0  0  0  0  0  0  0  0  0
   -2.9837   -3.8939    0.3082 C   0  0  0  0  0  0  0  0  0  0  0  0
   -3.3441   -0.1277   -0.0083 C   0  0  0  0  0  0  0  0  0  0  0  0
   -1.2518    4.6321    1.3468 H   0  0  0  0  0  0  0  0  0  0  0  0
    0.9006    2.8676    1.4914 H   0  0  0  0  0  0  0  0  0  0  0  0
   -3.7937    3.0305   -1.0757 H   0  0  0  0  0  0  0  0  0  0  0  0
   -3.9805    3.7483    0.5740 H   0  0  0  0  0  0  0  0  0  0  0  0
   -3.1595    4.6829   -0.7338 H   0  0  0  0  0  0  0  0  0  0  0  0
   -0.9449   -4.7294   -1.4465 H   0  0  0  0  0  0  0  0  0  0  0  0
    1.0455   -2.8082   -1.7581 H   0  0  0  0  0  0  0  0  0  0  0  0
   -3.4497   -3.2910    1.1090 H   0  0  0  0  0  0  0  0  0  0  0  0
   -3.6934   -4.0002   -0.5358 H   0  0  0  0  0  0  0  0  0  0  0  0
   -2.7371   -4.8979    0.7025 H   0  0  0  0  0  0  0  0  0  0  0  0
   -4.0076    0.5696    0.5421 H   0  0  0  0  0  0  0  0  0  0  0  0
   -3.9709   -0.8906   -0.5124 H   0  0  0  0  0  0  0  0  0  0  0  0
  1 15  1  0  0  0  0
  3  9  1  0  0  0  0
  4  8  1  0  0  0  0
  5 11  1  0  0  0  0
  6 11  1  0  0  0  0
  6 14  1  0  0  0  0
  7  1  1  1  0  0  0
  7  4  1  0  0  0  0
  7  3  1  0  0  0  0
  8  9  2  0  0  0  0
  8 16  1  0  0  0  0
  9 17  1  0  0  0  0
 10  4  1  0  0  0  0
 10 19  1  0  0  0  0
 11  2  1  6  0  0  0
 12  6  1  0  0  0  0
 13 12  2  0  0  0  0
 13  5  1  0  0  0  0
 14 25  1  0  0  0  0
 14 23  1  0  0  0  0
 15 26  1  0  0  0  0
 15  2  1  0  0  0  0
 18 10  1  0  0  0  0
 20 10  1  0  0  0  0
 21 12  1  0  0  0  0
 22 13  1  0  0  0  0
 24 14  1  0  0  0  0
 27 15  1  0  0  0  0
M  END
