1,2
 OpenBabel05122313053D

 28 28  0  0  1  0  0  0  0  0999 V2000
   -1.5650   -0.0328    0.0669 N   0  0  0  0  0  2  0  0  0  0  0  0
    1.0988    1.3892   -0.3856 N   0  0  0  0  0  0  0  0  0  0  0  0
    1.8603    1.1944   -1.0602 H   0  0  0  0  0  0  0  0  0  0  0  0
   -2.0182    0.9301   -0.7802 C   0  0  1  0  0  3  0  0  0  0  0  0
   -3.3634    1.3253   -0.7140 C   0  0  0  0  0  0  0  0  0  0  0  0
   -3.7282    2.0961   -1.4077 H   0  0  0  0  0  0  0  0  0  0  0  0
   -4.2231    0.7310    0.2195 C   0  0  0  0  0  0  0  0  0  0  0  0
   -5.2791    1.0353    0.2716 H   0  0  0  0  0  0  0  0  0  0  0  0
   -3.7217   -0.2552    1.0799 C   0  0  0  0  0  0  0  0  0  0  0  0
   -4.3577   -0.7497    1.8273 H   0  0  0  0  0  0  0  0  0  0  0  0
   -2.3796   -0.6235    0.9737 C   0  0  0  0  0  0  0  0  0  0  0  0
   -1.9327   -1.4196    1.5865 H   0  0  0  0  0  0  0  0  0  0  0  0
   -1.0372    1.5566   -1.7386 C   0  0  0  0  0  0  0  0  0  0  0  0
   -1.5760    2.2842   -2.3745 H   0  0  0  0  0  0  0  0  0  0  0  0
   -0.6262    0.7856   -2.4280 H   0  0  0  0  0  0  0  0  0  0  0  0
    0.1018    2.2971   -1.0225 C   0  0  0  0  0  0  0  0  0  0  0  0
    0.6349    2.9439   -1.7472 H   0  0  0  0  0  0  0  0  0  0  0  0
   -0.3200    2.9546   -0.2390 H   0  0  0  0  0  0  0  0  0  0  0  0
    1.7779    1.9316    0.8622 C   0  0  0  0  0  0  0  0  0  0  0  0
    2.5530    1.1670    1.0756 H   0  0  0  0  0  0  0  0  0  0  0  0
    0.8130    2.0031    2.0402 C   0  0  0  0  0  0  0  0  0  0  0  0
    1.3602    2.3639    2.9319 H   0  0  0  0  0  0  0  0  0  0  0  0
    0.3955    1.0074    2.2928 H   0  0  0  0  0  0  0  0  0  0  0  0
   -0.0257    2.7083    1.8682 H   0  0  0  0  0  0  0  0  0  0  0  0
    2.4695    3.2609    0.5548 C   0  0  0  0  0  0  0  0  0  0  0  0
    3.1445    3.1826   -0.3215 H   0  0  0  0  0  0  0  0  0  0  0  0
    3.0934    3.5492    1.4228 H   0  0  0  0  0  0  0  0  0  0  0  0
    1.7485    4.0841    0.3788 H   0  0  0  0  0  0  0  0  0  0  0  0
  1 11  1  0  0  0  0
  2 19  1  0  0  0  0
  3  2  1  0  0  0  0
  4 13  1  1  0  0  0
  4  5  1  0  0  0  0
  4  1  1  0  0  0  0
  5  7  2  0  0  0  0
  6  5  1  0  0  0  0
  7  8  1  0  0  0  0
  7  9  1  0  0  0  0
  9 10  1  0  0  0  0
 11  9  2  0  0  0  0
 11 12  1  0  0  0  0
 13 16  1  0  0  0  0
 14 13  1  0  0  0  0
 15 13  1  0  0  0  0
 16  2  1  0  0  0  0
 16 18  1  0  0  0  0
 17 16  1  0  0  0  0
 19 20  1  0  0  0  0
 19 21  1  0  0  0  0
 21 23  1  0  0  0  0
 21 22  1  0  0  0  0
 24 21  1  0  0  0  0
 25 19  1  0  0  0  0
 25 27  1  0  0  0  0
 26 25  1  0  0  0  0
 28 25  1  0  0  0  0
M  END
