3,22
 OpenBabel05122313053D

 22 24  0  0  0  0  0  0  0  0999 V2000
   -0.7367   -3.5605    0.1735 Cl  0  0  0  0  0  0  0  0  0  0  0  0
   -0.7365    3.5606    0.1734 Cl  0  0  0  0  0  0  0  0  0  0  0  0
    0.7355   -1.3685   -0.1239 N   0  0  0  0  0  2  0  0  0  0  0  0
    0.7525   -2.6991    0.0264 C   0  0  0  0  0  0  0  0  0  0  0  0
    1.9368   -3.4740    0.0823 C   0  0  0  0  0  0  0  0  0  0  0  0
    1.8534   -4.5634    0.1850 H   0  0  0  0  0  0  0  0  0  0  0  0
    3.1605   -2.8317    0.0042 C   0  0  0  0  0  0  0  0  0  0  0  0
    4.1002   -3.4031    0.0349 H   0  0  0  0  0  0  0  0  0  0  0  0
    3.1977   -1.4177   -0.0841 C   0  0  0  0  0  0  0  0  0  0  0  0
    1.9491   -0.7197   -0.1297 C   0  0  0  0  0  0  0  0  0  0  0  0
    4.4304   -0.6866   -0.0985 C   0  0  0  0  0  0  0  0  0  0  0  0
    5.3747   -1.2511   -0.0859 H   0  0  0  0  0  0  0  0  0  0  0  0
    4.4305    0.6864   -0.0986 C   0  0  0  0  0  0  0  0  0  0  0  0
    5.3747    1.2509   -0.0860 H   0  0  0  0  0  0  0  0  0  0  0  0
    3.1977    1.4175   -0.0842 C   0  0  0  0  0  0  0  0  0  0  0  0
    1.9491    0.7196   -0.1297 C   0  0  0  0  0  0  0  0  0  0  0  0
    3.1606    2.8315    0.0040 C   0  0  0  0  0  0  0  0  0  0  0  0
    4.1003    3.4029    0.0348 H   0  0  0  0  0  0  0  0  0  0  0  0
    1.9369    3.4739    0.0822 C   0  0  0  0  0  0  0  0  0  0  0  0
    1.8535    4.5633    0.1849 H   0  0  0  0  0  0  0  0  0  0  0  0
    0.7526    2.6990    0.0263 C   0  0  0  0  0  0  0  0  0  0  0  0
    0.7355    1.3684   -0.1240 N   0  0  0  0  0  2  0  0  0  0  0  0
  3  4  1  0  0  0  0
  4  5  2  0  0  0  0
  4  1  1  0  0  0  0
  5  6  1  0  0  0  0
  7  8  1  0  0  0  0
  7  5  1  0  0  0  0
  9  7  2  0  0  0  0
 10  3  1  0  0  0  0
 10  9  1  0  0  0  0
 11 12  1  0  0  0  0
 11  9  1  0  0  0  0
 13 11  2  0  0  0  0
 13 14  1  0  0  0  0
 13 15  1  0  0  0  0
 15 17  2  0  0  0  0
 16 10  2  0  0  0  0
 16 22  1  0  0  0  0
 16 15  1  0  0  0  0
 17 18  1  0  0  0  0
 17 19  1  0  0  0  0
 19 20  1  0  0  0  0
 21 19  2  0  0  0  0
 21  2  1  0  0  0  0
 22 21  1  0  0  0  0
M  END
