1,2
 OpenBabel05122313053D

 19 19  0  0  1  0  0  0  0  0999 V2000
    1.4830   -0.0430    0.6298 N   0  0  0  0  0  0  0  0  0  0  0  0
    0.1528    1.5447   -1.2615 N   0  0  0  0  0  0  0  0  0  0  0  0
    2.2681    1.0256   -0.1084 C   0  0  1  0  0  0  0  0  0  0  0  0
    3.7046    0.4617   -0.2377 C   0  0  0  0  0  0  0  0  0  0  0  0
    3.7190   -0.7987    0.6530 C   0  0  0  0  0  0  0  0  0  0  0  0
    2.2769   -1.2999    0.5710 C   0  0  0  0  0  0  0  0  0  0  0  0
    1.6018    1.3139   -1.4578 C   0  0  0  0  0  0  0  0  0  0  0  0
    1.3804    0.2640    1.6131 H   0  0  0  0  0  0  0  0  0  0  0  0
   -0.3913    1.5244   -2.1383 H   0  0  0  0  0  0  0  0  0  0  0  0
   -0.0604    2.4192   -0.7487 H   0  0  0  0  0  0  0  0  0  0  0  0
    2.2196    1.9348    0.5246 H   0  0  0  0  0  0  0  0  0  0  0  0
    4.4708    1.2045    0.0542 H   0  0  0  0  0  0  0  0  0  0  0  0
    3.9007    0.1832   -1.2937 H   0  0  0  0  0  0  0  0  0  0  0  0
    3.9772   -0.5347    1.7005 H   0  0  0  0  0  0  0  0  0  0  0  0
    4.4515   -1.5554    0.3122 H   0  0  0  0  0  0  0  0  0  0  0  0
    1.9397   -1.9714    1.3812 H   0  0  0  0  0  0  0  0  0  0  0  0
    2.0490   -1.7917   -0.3964 H   0  0  0  0  0  0  0  0  0  0  0  0
    2.0917    2.1789   -1.9523 H   0  0  0  0  0  0  0  0  0  0  0  0
    1.6845    0.4239   -2.1140 H   0  0  0  0  0  0  0  0  0  0  0  0
  1  8  1  0  0  0  0
  2 10  1  0  0  0  0
  3 11  1  1  0  0  0
  3  1  1  0  0  0  0
  4  3  1  0  0  0  0
  4 12  1  0  0  0  0
  4  5  1  0  0  0  0
  5 14  1  0  0  0  0
  6  1  1  0  0  0  0
  6  5  1  0  0  0  0
  6 16  1  0  0  0  0
  7  2  1  0  0  0  0
  7  3  1  0  0  0  0
  9  2  1  0  0  0  0
 13  4  1  0  0  0  0
 15  5  1  0  0  0  0
 17  6  1  0  0  0  0
 18  7  1  0  0  0  0
 19  7  1  0  0  0  0
M  END
