1,2
 OpenBabel05122313053D

 37 40  0  0  1  0  0  0  0  0999 V2000
   -1.8902   -2.5655   -0.7964 N   0  0  0  0  0  2  0  0  0  0  0  0
   -1.2184   -0.9318    1.2088 N   0  0  0  0  0  2  0  0  0  0  0  0
   -0.6101    0.0639    1.8151 N   0  0  0  0  0  0  0  0  0  0  0  0
    1.3884   -1.0419    2.3403 O   0  0  0  0  0  0  0  0  0  0  0  0
   -1.0080    1.4237    1.4760 O   0  0  0  0  0  0  0  0  0  0  0  0
   -2.1676   -3.6026   -1.6124 C   0  0  0  0  0  3  0  0  0  0  0  0
   -3.4502   -4.1442   -1.7281 C   0  0  0  0  0  0  0  0  0  0  0  0
   -4.4843   -3.5838   -0.9561 C   0  0  0  0  0  0  0  0  0  0  0  0
   -4.1980   -2.5152   -0.1045 C   0  0  0  0  0  0  0  0  0  0  0  0
   -2.8796   -2.0129   -0.0305 C   0  0  0  0  0  0  0  0  0  0  0  0
   -2.4896   -0.8887    0.8338 C   0  0  2  0  0  3  0  0  0  0  0  0
   -3.4877    0.1485    1.1787 C   0  0  0  0  0  0  0  0  0  0  0  0
   -4.3630    0.6541    0.1912 C   0  0  0  0  0  0  0  0  0  0  0  0
   -5.3167    1.6271    0.5166 C   0  0  0  0  0  0  0  0  0  0  0  0
   -5.4189    2.0993    1.8349 C   0  0  0  0  0  0  0  0  0  0  0  0
   -4.5605    1.5946    2.8262 C   0  0  0  0  0  0  0  0  0  0  0  0
   -3.5984    0.6313    2.5022 C   0  0  0  0  0  0  0  0  0  0  0  0
    0.8253    0.0057    2.0782 C   0  0  0  0  0  0  0  0  0  0  0  0
    1.2637    1.3837    1.9165 C   0  0  0  0  0  0  0  0  0  0  0  0
    0.1485    2.1505    1.5339 C   0  0  0  0  0  0  0  0  0  0  0  0
    0.2400    3.5017    1.1890 C   0  0  0  0  0  0  0  0  0  0  0  0
    1.5258    4.0593    1.2231 C   0  0  0  0  0  0  0  0  0  0  0  0
    2.6623    3.3102    1.6071 C   0  0  0  0  0  0  0  0  0  0  0  0
    2.5447    1.9644    1.9614 C   0  0  0  0  0  0  0  0  0  0  0  0
   -1.3242   -3.9847   -2.2087 H   0  0  0  0  0  0  0  0  0  0  0  0
   -3.6334   -4.9769   -2.4211 H   0  0  0  0  0  0  0  0  0  0  0  0
   -5.5068   -3.9853   -1.0157 H   0  0  0  0  0  0  0  0  0  0  0  0
   -4.9762   -2.0629    0.5250 H   0  0  0  0  0  0  0  0  0  0  0  0
   -4.2706    0.2947   -0.8444 H   0  0  0  0  0  0  0  0  0  0  0  0
   -5.9775    2.0271   -0.2672 H   0  0  0  0  0  0  0  0  0  0  0  0
   -6.1670    2.8648    2.0907 H   0  0  0  0  0  0  0  0  0  0  0  0
   -4.6393    1.9591    3.8615 H   0  0  0  0  0  0  0  0  0  0  0  0
   -2.9222    0.2450    3.2790 H   0  0  0  0  0  0  0  0  0  0  0  0
   -0.6385    4.0643    0.8458 H   0  0  0  0  0  0  0  0  0  0  0  0
    1.6516    5.1063    0.9097 H   0  0  0  0  0  0  0  0  0  0  0  0
    3.6531    3.7860    1.5962 H   0  0  0  0  0  0  0  0  0  0  0  0
    3.4204    1.3555    2.2262 H   0  0  0  0  0  0  0  0  0  0  0  0
  1 10  1  0  0  0  0
  2  3  1  0  0  0  0
  3 18  1  0  0  0  0
  5 20  1  0  0  0  0
  5  3  1  0  0  0  0
  6  1  1  0  0  0  0
  7  6  1  0  0  0  0
  7  8  2  0  0  0  0
  8  9  1  0  0  0  0
  9 10  2  0  0  0  0
  9 28  1  0  0  0  0
 10 11  1  0  0  0  0
 11 12  1  0  0  0  0
 11  2  1  6  0  0  0
 12 17  1  0  0  0  0
 13 14  1  0  0  0  0
 13 12  2  0  0  0  0
 14 15  2  0  0  0  0
 15 31  1  0  0  0  0
 15 16  1  0  0  0  0
 16 32  1  0  0  0  0
 17 16  2  0  0  0  0
 17 33  1  0  0  0  0
 18  4  2  0  0  0  0
 19 24  1  0  0  0  0
 19 18  1  0  0  0  0
 20 19  2  0  0  0  0
 21 22  2  0  0  0  0
 21 20  1  0  0  0  0
 22 23  1  0  0  0  0
 23 24  2  0  0  0  0
 24 37  1  0  0  0  0
 25  6  1  0  0  0  0
 26  7  1  0  0  0  0
 27  8  1  0  0  0  0
 29 13  1  0  0  0  0
 30 14  1  0  0  0  0
 34 21  1  0  0  0  0
 35 22  1  0  0  0  0
 36 23  1  0  0  0  0
M  END
