2,3
 OpenBabel05122313053D

 29 32  0  0  1  0  0  0  0  0999 V2000
    1.8937   -0.6180    2.7657 S   0  0  0  0  0  0  0  0  0  0  0  0
    1.2056   -1.0181    0.2831 N   0  0  0  0  0  2  0  0  0  0  0  0
   -1.4179   -0.7114    0.5061 N   0  0  0  0  0  2  0  0  0  0  0  0
    2.5625   -1.3079    0.3332 C   0  0  0  0  0  0  0  0  0  0  0  0
    0.7248   -0.6694    1.4726 C   0  0  1  0  0  3  0  0  0  0  0  0
   -2.7941   -0.7312    0.5902 C   0  0  2  0  0  3  0  0  0  0  0  0
   -3.4637   -0.3403    1.8132 C   0  0  0  0  0  0  0  0  0  0  0  0
    3.1279   -1.1277    1.6341 C   0  0  0  0  0  0  0  0  0  0  0  0
   -0.7049   -0.4654    1.6285 C   0  0  0  0  0  0  0  0  0  0  0  0
   -3.5909   -1.1709   -0.5033 C   0  0  0  0  0  0  0  0  0  0  0  0
   -3.1018   -1.5467   -1.4077 H   0  0  0  0  0  0  0  0  0  0  0  0
    3.3858   -1.7645   -0.7195 C   0  0  0  0  0  0  0  0  0  0  0  0
    2.9724   -1.9384   -1.7196 H   0  0  0  0  0  0  0  0  0  0  0  0
   -1.2955   -0.0945    2.8649 C   0  0  0  0  0  0  0  0  0  0  0  0
   -0.6563    0.1164    3.7342 H   0  0  0  0  0  0  0  0  0  0  0  0
   -2.6711    0.0006    2.9429 C   0  0  0  0  0  0  0  0  0  0  0  0
   -3.1636    0.3086    3.8774 H   0  0  0  0  0  0  0  0  0  0  0  0
   -4.8859   -0.3344    1.8635 C   0  0  0  0  0  0  0  0  0  0  0  0
   -5.3782   -0.0215    2.7965 H   0  0  0  0  0  0  0  0  0  0  0  0
    4.7355   -2.0051   -0.4574 C   0  0  0  0  0  0  0  0  0  0  0  0
    5.3836   -2.3653   -1.2693 H   0  0  0  0  0  0  0  0  0  0  0  0
   -5.6329   -0.7361    0.7672 C   0  0  0  0  0  0  0  0  0  0  0  0
   -6.7316   -0.7356    0.8139 H   0  0  0  0  0  0  0  0  0  0  0  0
   -4.9755   -1.1748   -0.4119 C   0  0  0  0  0  0  0  0  0  0  0  0
   -5.5698   -1.5327   -1.2656 H   0  0  0  0  0  0  0  0  0  0  0  0
    4.4863   -1.3665    1.8937 C   0  0  0  0  0  0  0  0  0  0  0  0
    4.9077   -1.2239    2.8988 H   0  0  0  0  0  0  0  0  0  0  0  0
    5.2832   -1.8036    0.8308 C   0  0  0  0  0  0  0  0  0  0  0  0
    6.3508   -2.0023    1.0045 H   0  0  0  0  0  0  0  0  0  0  0  0
  2  4  1  0  0  0  0
  2  5  1  0  0  0  0
  3  6  1  0  0  0  0
  3  9  1  0  0  0  0
  4  8  1  0  0  0  0
  5  9  1  1  0  0  0
  5  1  1  0  0  0  0
  6 10  1  1  0  0  0
  6  7  1  0  0  0  0
  7 18  1  0  0  0  0
  7 16  2  0  0  0  0
  8 26  2  0  0  0  0
  8  1  1  0  0  0  0
  9 14  2  0  0  0  0
 10 24  2  0  0  0  0
 11 10  1  0  0  0  0
 12 20  1  0  0  0  0
 12  4  2  0  0  0  0
 13 12  1  0  0  0  0
 14 16  1  0  0  0  0
 14 15  1  0  0  0  0
 16 17  1  0  0  0  0
 18 19  1  0  0  0  0
 20 28  2  0  0  0  0
 21 20  1  0  0  0  0
 22 23  1  0  0  0  0
 22 18  2  0  0  0  0
 24 22  1  0  0  0  0
 25 24  1  0  0  0  0
 26 27  1  0  0  0  0
 28 29  1  0  0  0  0
 28 26  1  0  0  0  0
M  END
