2,3
 OpenBabel05122313053D

 34 36  0  0  0  0  0  0  0  0999 V2000
    2.8182   -1.6232   -1.6845 S   0  0  0  0  0  0  0  0  0  0  0  0
   -1.6289    0.5450   -0.5277 N   0  0  0  0  0  2  0  0  0  0  0  0
    1.0605    0.7936   -0.7223 N   0  0  0  0  0  2  0  0  0  0  0  0
   -2.9924    0.3282   -0.5532 C   0  0  0  0  0  0  0  0  0  0  0  0
    2.4680    0.9820   -0.6683 C   0  0  0  0  0  0  0  0  0  0  0  0
   -1.1264    1.5791   -1.2527 C   0  0  0  0  0  0  0  0  0  0  0  0
   -3.5665   -0.7996    0.0953 C   0  0  0  0  0  0  0  0  0  0  0  0
   -2.9094   -1.5123    0.6027 H   0  0  0  0  0  0  0  0  0  0  0  0
    0.3164    1.6953   -1.3078 C   0  0  0  0  0  3  0  0  0  0  0  0
    0.7727    2.5265   -1.8757 H   0  0  0  0  0  0  0  0  0  0  0  0
   -3.8757    1.2346   -1.2603 C   0  0  0  0  0  0  0  0  0  0  0  0
    2.9793    2.2098   -0.1904 C   0  0  0  0  0  0  0  0  0  0  0  0
    2.2757    3.0107    0.0829 H   0  0  0  0  0  0  0  0  0  0  0  0
    3.3585   -0.0670   -1.0180 C   0  0  0  0  0  0  0  0  0  0  0  0
   -1.9393    2.4974   -1.9700 C   0  0  0  0  0  0  0  0  0  0  0  0
   -1.4603    3.3165   -2.5245 H   0  0  0  0  0  0  0  0  0  0  0  0
   -4.9365   -1.0132    0.0667 C   0  0  0  0  0  0  0  0  0  0  0  0
   -5.3538   -1.8981    0.5695 H   0  0  0  0  0  0  0  0  0  0  0  0
   -5.8040   -0.1093   -0.6018 C   0  0  0  0  0  0  0  0  0  0  0  0
   -6.8884   -0.2919   -0.6055 H   0  0  0  0  0  0  0  0  0  0  0  0
    4.3545    2.3778    0.0020 C   0  0  0  0  0  0  0  0  0  0  0  0
    4.7394    3.3302    0.3951 H   0  0  0  0  0  0  0  0  0  0  0  0
   -5.2783    0.9936   -1.2557 C   0  0  0  0  0  3  0  0  0  0  0  0
   -5.9339    1.6962   -1.7916 H   0  0  0  0  0  0  0  0  0  0  0  0
   -3.3106    2.3351   -1.9582 C   0  0  0  0  0  0  0  0  0  0  0  0
   -3.9699    3.0328   -2.4961 H   0  0  0  0  0  0  0  0  0  0  0  0
    4.7393    0.1198   -0.8101 C   0  0  0  0  0  0  0  0  0  0  0  0
    5.4248   -0.6940   -1.0894 H   0  0  0  0  0  0  0  0  0  0  0  0
    5.2353    1.3233   -0.2923 C   0  0  0  0  0  0  0  0  0  0  0  0
    6.3172    1.4455   -0.1369 H   0  0  0  0  0  0  0  0  0  0  0  0
    1.8624   -1.1410   -3.1635 C   0  0  0  0  0  0  0  0  0  0  0  0
    0.9048   -0.6452   -2.9150 H   0  0  0  0  0  0  0  0  0  0  0  0
    1.6422   -2.0940   -3.6816 H   0  0  0  0  0  0  0  0  0  0  0  0
    2.4746   -0.5014   -3.8268 H   0  0  0  0  0  0  0  0  0  0  0  0
  1 14  1  0  0  0  0
  3  5  1  0  0  0  0
  4  2  1  0  0  0  0
  4  7  2  0  0  0  0
  5 12  1  0  0  0  0
  6  2  1  0  0  0  0
  7  8  1  0  0  0  0
  9  6  1  0  0  0  0
  9  3  1  0  0  0  0
 10  9  1  0  0  0  0
 11 23  1  0  0  0  0
 11  4  1  0  0  0  0
 12 21  2  0  0  0  0
 12 13  1  0  0  0  0
 14 27  1  0  0  0  0
 14  5  2  0  0  0  0
 15 25  1  0  0  0  0
 15  6  2  0  0  0  0
 16 15  1  0  0  0  0
 17  7  1  0  0  0  0
 17 18  1  0  0  0  0
 19 17  2  0  0  0  0
 20 19  1  0  0  0  0
 21 22  1  0  0  0  0
 23 19  1  0  0  0  0
 24 23  1  0  0  0  0
 25 11  2  0  0  0  0
 26 25  1  0  0  0  0
 27 29  2  0  0  0  0
 28 27  1  0  0  0  0
 29 30  1  0  0  0  0
 29 21  1  0  0  0  0
 31 32  1  0  0  0  0
 31  1  1  0  0  0  0
 33 31  1  0  0  0  0
 34 31  1  0  0  0  0
M  END
