4,6
 OpenBabel05122313053D

 37 39  0  0  1  0  0  0  0  0999 V2000
    1.4451   -1.8887   -0.2775 O   0  0  0  0  0  0  0  0  0  0  0  0
    1.1257    0.3599   -0.5417 N   0  0  0  0  0  0  0  0  0  0  0  0
    1.4212    1.3639   -0.4658 H   0  0  0  0  0  0  0  0  0  0  0  0
   -0.1806    0.1446   -0.5720 N   0  0  0  0  0  2  0  0  0  0  0  0
    0.5353    2.9068   -0.3097 N   0  0  0  0  0  0  0  0  0  0  0  0
   -2.6035   -0.7265   -0.2286 N   0  0  0  0  0  2  0  0  0  0  0  0
    4.2401   -1.5319    0.0878 C   0  0  0  0  0  0  0  0  0  0  0  0
    3.7711   -2.4586    0.4488 H   0  0  0  0  0  0  0  0  0  0  0  0
    5.6272   -1.3506    0.1140 C   0  0  0  0  0  0  0  0  0  0  0  0
    6.2764   -2.1478    0.5059 H   0  0  0  0  0  0  0  0  0  0  0  0
    6.1900   -0.1528   -0.3588 C   0  0  0  0  0  0  0  0  0  0  0  0
    7.2814   -0.0121   -0.3396 H   0  0  0  0  0  0  0  0  0  0  0  0
    5.3618    0.8644   -0.8615 C   0  0  0  0  0  0  0  0  0  0  0  0
    5.8032    1.7967   -1.2445 H   0  0  0  0  0  0  0  0  0  0  0  0
    3.9720    0.6901   -0.8845 C   0  0  0  0  0  0  0  0  0  0  0  0
    3.3354    1.4841   -1.3045 H   0  0  0  0  0  0  0  0  0  0  0  0
    3.4023   -0.5092   -0.4042 C   0  0  0  0  0  0  0  0  0  0  0  0
    1.9391   -0.7651   -0.4041 C   0  0  0  0  0  0  0  0  0  0  0  0
   -1.0704    1.1009   -0.4333 C   0  0  2  0  0  3  0  0  0  0  0  0
   -0.7439    2.4996   -0.0874 C   0  0  0  0  0  0  0  0  0  0  0  0
    0.9010    4.1484    0.0364 C   0  0  0  0  0  0  0  0  0  0  0  0
    1.9529    4.4182   -0.1598 H   0  0  0  0  0  0  0  0  0  0  0  0
    0.0250    5.0708    0.6254 C   0  0  0  0  0  0  0  0  0  0  0  0
    0.3718    6.0811    0.8855 H   0  0  0  0  0  0  0  0  0  0  0  0
   -1.2866    4.6522    0.8957 C   0  0  0  0  0  0  0  0  0  0  0  0
   -1.9994    5.3271    1.3930 H   0  0  0  0  0  0  0  0  0  0  0  0
   -1.6780    3.3573    0.5433 C   0  0  0  0  0  0  0  0  0  0  0  0
   -2.6851    2.9949    0.7859 H   0  0  0  0  0  0  0  0  0  0  0  0
   -2.4640    0.5844   -0.5305 C   0  0  1  0  0  3  0  0  0  0  0  0
   -3.5631    1.3384   -0.9882 C   0  0  0  0  0  0  0  0  0  0  0  0
   -3.4348    2.3861   -1.2936 H   0  0  0  0  0  0  0  0  0  0  0  0
   -4.8142    0.7136   -1.0954 C   0  0  0  0  0  0  0  0  0  0  0  0
   -5.6837    1.2837   -1.4564 H   0  0  0  0  0  0  0  0  0  0  0  0
   -4.9387   -0.6424   -0.7632 C   0  0  0  0  0  0  0  0  0  0  0  0
   -5.9023   -1.1659   -0.8407 H   0  0  0  0  0  0  0  0  0  0  0  0
   -3.7903   -1.3336   -0.3468 C   0  0  0  0  0  0  0  0  0  0  0  0
   -3.7772   -2.4146   -0.1181 H   0  0  0  0  0  0  0  0  0  0  0  0
  2  3  1  0  0  0  0
  2 18  1  0  0  0  0
  4  2  1  0  0  0  0
  5 20  2  0  0  0  0
  5 21  1  0  0  0  0
  7  9  1  0  0  0  0
  7  8  1  0  0  0  0
  9 10  1  0  0  0  0
 11 12  1  0  0  0  0
 11  9  2  0  0  0  0
 13 11  1  0  0  0  0
 14 13  1  0  0  0  0
 15 13  2  0  0  0  0
 15 17  1  0  0  0  0
 16 15  1  0  0  0  0
 17 18  1  0  0  0  0
 17  7  2  0  0  0  0
 18  1  2  0  0  0  0
 19  4  1  1  0  0  0
 19 20  1  0  0  0  0
 20 27  1  0  0  0  0
 21 23  2  0  0  0  0
 22 21  1  0  0  0  0
 23 24  1  0  0  0  0
 23 25  1  0  0  0  0
 25 26  1  0  0  0  0
 27 28  1  0  0  0  0
 27 25  2  0  0  0  0
 29 19  1  6  0  0  0
 29  6  1  0  0  0  0
 30 29  1  0  0  0  0
 31 30  1  0  0  0  0
 32 30  2  0  0  0  0
 32 34  1  0  0  0  0
 33 32  1  0  0  0  0
 34 36  2  0  0  0  0
 35 34  1  0  0  0  0
 36  6  1  0  0  0  0
 36 37  1  0  0  0  0
M  END
