1,3
 OpenBabel05122313053D

 21 22  0  0  0  0  0  0  0  0999 V2000
    1.3741    1.5239    0.1009 N   0  0  0  0  0  2  0  0  0  0  0  0
    1.2879    2.5364    0.9128 N   0  0  0  0  0  2  0  0  0  0  0  0
   -0.8295    1.6285    1.5209 N   0  0  0  0  0  0  0  0  0  0  0  0
    0.1505    2.6140    1.6247 C   0  0  0  0  0  0  0  0  0  0  0  0
   -0.2635    3.6091    2.5625 C   0  0  0  0  0  0  0  0  0  0  0  0
    0.3100    4.5002    2.8397 H   0  0  0  0  0  0  0  0  0  0  0  0
   -1.5210    3.2020    3.0193 C   0  0  0  0  0  0  0  0  0  0  0  0
   -2.1608    3.7132    3.7486 H   0  0  0  0  0  0  0  0  0  0  0  0
   -1.8304    1.9760    2.3500 C   0  0  0  0  0  3  0  0  0  0  0  0
   -2.7254    1.3465    2.4455 H   0  0  0  0  0  0  0  0  0  0  0  0
    2.6172    1.4032   -0.5684 C   0  0  0  0  0  0  0  0  0  0  0  0
    3.7876    2.0262   -0.0735 C   0  0  0  0  0  0  0  0  0  0  0  0
    3.7135    2.6186    0.8482 H   0  0  0  0  0  0  0  0  0  0  0  0
    5.0003    1.8762   -0.7533 C   0  0  0  0  0  0  0  0  0  0  0  0
    5.9071    2.3572   -0.3548 H   0  0  0  0  0  0  0  0  0  0  0  0
    5.0716    1.1102   -1.9314 C   0  0  0  0  0  0  0  0  0  0  0  0
    6.0307    0.9900   -2.4574 H   0  0  0  0  0  0  0  0  0  0  0  0
    3.9097    0.4963   -2.4253 C   0  0  0  0  0  0  0  0  0  0  0  0
    3.9478   -0.1060   -3.3457 H   0  0  0  0  0  0  0  0  0  0  0  0
    2.6898    0.6379   -1.7514 C   0  0  0  0  0  0  0  0  0  0  0  0
    1.7825    0.1522   -2.1313 H   0  0  0  0  0  0  0  0  0  0  0  0
  1  2  1  0  0  0  0
  2  4  1  0  0  0  0
  3  4  2  0  0  0  0
  3  9  1  0  0  0  0
  4  5  1  0  0  0  0
  5  6  1  0  0  0  0
  5  7  2  0  0  0  0
  7  8  1  0  0  0  0
  9 10  1  0  0  0  0
  9  7  1  0  0  0  0
 11 12  1  0  0  0  0
 11  1  1  0  0  0  0
 12 13  1  0  0  0  0
 14 15  1  0  0  0  0
 14 12  2  0  0  0  0
 16 14  1  0  0  0  0
 17 16  1  0  0  0  0
 18 16  2  0  0  0  0
 18 20  1  0  0  0  0
 19 18  1  0  0  0  0
 20 11  2  0  0  0  0
 21 20  1  0  0  0  0
M  END
