1,36
 OpenBabel05122313053D

 70 71  0  0  0  0  0  0  0  0999 V2000
    1.2622    0.2652    0.7108 N   0  0  0  0  0  2  0  0  0  0  0  0
    0.7625    0.7329    1.8430 C   0  0  0  0  0  0  0  0  0  0  0  0
    1.5577    1.0407    3.0732 C   0  0  0  0  0  0  0  0  0  0  0  0
    2.5911    0.6610    2.9867 H   0  0  0  0  0  0  0  0  0  0  0  0
    1.0813    0.5993    3.9717 H   0  0  0  0  0  0  0  0  0  0  0  0
    1.6081    2.1375    3.2426 H   0  0  0  0  0  0  0  0  0  0  0  0
    2.6507   -0.0501    0.6043 C   0  0  0  0  0  0  0  0  0  0  0  0
    2.9995   -1.4270    0.5755 C   0  0  0  0  0  0  0  0  0  0  0  0
    4.3618   -1.7566    0.5023 C   0  0  0  0  0  0  0  0  0  0  0  0
    4.6600   -2.8147    0.4822 H   0  0  0  0  0  0  0  0  0  0  0  0
    5.3432   -0.7574    0.4367 C   0  0  0  0  0  0  0  0  0  0  0  0
    6.4065   -1.0345    0.3762 H   0  0  0  0  0  0  0  0  0  0  0  0
    4.9708    0.5913    0.4229 C   0  0  0  0  0  0  0  0  0  0  0  0
    5.7461    1.3675    0.3346 H   0  0  0  0  0  0  0  0  0  0  0  0
    3.6195    0.9789    0.5021 C   0  0  0  0  0  0  0  0  0  0  0  0
    1.9086   -2.4873    0.6251 C   0  0  0  0  0  0  0  0  0  0  0  0
    1.0126   -2.0182    0.1525 H   0  0  0  0  0  0  0  0  0  0  0  0
    1.5254   -2.8430    2.0715 C   0  0  0  0  0  0  0  0  0  0  0  0
    2.3801   -3.3074    2.6063 H   0  0  0  0  0  0  0  0  0  0  0  0
    0.6795   -3.5610    2.0868 H   0  0  0  0  0  0  0  0  0  0  0  0
    1.2160   -1.9479    2.6484 H   0  0  0  0  0  0  0  0  0  0  0  0
    2.2312   -3.7319   -0.2054 C   0  0  0  0  0  0  0  0  0  0  0  0
    2.4962   -3.4509   -1.2436 H   0  0  0  0  0  0  0  0  0  0  0  0
    1.3465   -4.3987   -0.2472 H   0  0  0  0  0  0  0  0  0  0  0  0
    3.0671   -4.3214    0.2256 H   0  0  0  0  0  0  0  0  0  0  0  0
    3.2354    2.4496    0.3873 C   0  0  0  0  0  0  0  0  0  0  0  0
    2.1520    2.5370    0.6077 H   0  0  0  0  0  0  0  0  0  0  0  0
    3.9907    3.3381    1.3889 C   0  0  0  0  0  0  0  0  0  0  0  0
    3.8644    2.9883    2.4334 H   0  0  0  0  0  0  0  0  0  0  0  0
    3.6283    4.3846    1.3294 H   0  0  0  0  0  0  0  0  0  0  0  0
    5.0791    3.3580    1.1751 H   0  0  0  0  0  0  0  0  0  0  0  0
    3.4333    2.9391   -1.0597 C   0  0  0  0  0  0  0  0  0  0  0  0
    4.5034    2.8913   -1.3498 H   0  0  0  0  0  0  0  0  0  0  0  0
    3.0986    3.9917   -1.1650 H   0  0  0  0  0  0  0  0  0  0  0  0
    2.8588    2.3083   -1.7666 H   0  0  0  0  0  0  0  0  0  0  0  0
   -1.2379    0.3841    0.7155 N   0  0  0  0  0  2  0  0  0  0  0  0
   -0.6870    0.8686    1.8175 C   0  0  0  0  0  0  0  0  0  0  0  0
   -1.4422    1.4705    2.9621 C   0  0  0  0  0  0  0  0  0  0  0  0
   -2.5328    1.4044    2.8026 H   0  0  0  0  0  0  0  0  0  0  0  0
   -1.1880    0.9628    3.9151 H   0  0  0  0  0  0  0  0  0  0  0  0
   -1.1675    2.5393    3.0896 H   0  0  0  0  0  0  0  0  0  0  0  0
   -2.6564    0.3783    0.5645 C   0  0  0  0  0  0  0  0  0  0  0  0
   -3.3314   -0.8449    0.8078 C   0  0  0  0  0  0  0  0  0  0  0  0
   -4.7284   -0.8596    0.6571 C   0  0  0  0  0  0  0  0  0  0  0  0
   -5.2809   -1.7926    0.8415 H   0  0  0  0  0  0  0  0  0  0  0  0
   -5.4210    0.2909    0.2607 C   0  0  0  0  0  0  0  0  0  0  0  0
   -6.5145    0.2599    0.1409 H   0  0  0  0  0  0  0  0  0  0  0  0
   -4.7266    1.4818    0.0073 C   0  0  0  0  0  0  0  0  0  0  0  0
   -5.2840    2.3732   -0.3135 H   0  0  0  0  0  0  0  0  0  0  0  0
   -3.3296    1.5573    0.1529 C   0  0  0  0  0  0  0  0  0  0  0  0
   -2.5528   -2.0770    1.2512 C   0  0  0  0  0  0  0  0  0  0  0  0
   -1.5104   -1.9240    0.9003 H   0  0  0  0  0  0  0  0  0  0  0  0
   -2.5210   -2.1885    2.7864 C   0  0  0  0  0  0  0  0  0  0  0  0
   -3.5427   -2.3328    3.1953 H   0  0  0  0  0  0  0  0  0  0  0  0
   -1.9004   -3.0515    3.1046 H   0  0  0  0  0  0  0  0  0  0  0  0
   -2.1009   -1.2780    3.2585 H   0  0  0  0  0  0  0  0  0  0  0  0
   -3.0566   -3.3719    0.6048 C   0  0  0  0  0  0  0  0  0  0  0  0
   -3.0606   -3.2753   -0.4984 H   0  0  0  0  0  0  0  0  0  0  0  0
   -2.3906   -4.2166    0.8756 H   0  0  0  0  0  0  0  0  0  0  0  0
   -4.0786   -3.6411    0.9435 H   0  0  0  0  0  0  0  0  0  0  0  0
   -2.5544    2.8285   -0.1789 C   0  0  0  0  0  0  0  0  0  0  0  0
   -1.6941    2.8857    0.5226 H   0  0  0  0  0  0  0  0  0  0  0  0
   -3.3715    4.1122    0.0125 C   0  0  0  0  0  0  0  0  0  0  0  0
   -3.8308    4.1657    1.0205 H   0  0  0  0  0  0  0  0  0  0  0  0
   -2.7216    5.0005   -0.1186 H   0  0  0  0  0  0  0  0  0  0  0  0
   -4.1852    4.1968   -0.7368 H   0  0  0  0  0  0  0  0  0  0  0  0
   -1.9659    2.7497   -1.6007 C   0  0  0  0  0  0  0  0  0  0  0  0
   -2.7757    2.6708   -2.3543 H   0  0  0  0  0  0  0  0  0  0  0  0
   -1.3640    3.6538   -1.8260 H   0  0  0  0  0  0  0  0  0  0  0  0
   -1.3184    1.8593   -1.7261 H   0  0  0  0  0  0  0  0  0  0  0  0
  1  2  1  0  0  0  0
  2  3  1  0  0  0  0
  3  6  1  0  0  0  0
  3  5  1  0  0  0  0
  4  3  1  0  0  0  0
  7  1  1  0  0  0  0
  8  7  1  0  0  0  0
  8 16  1  0  0  0  0
  9  8  2  0  0  0  0
 10  9  1  0  0  0  0
 11  9  1  0  0  0  0
 12 11  1  0  0  0  0
 13 11  2  0  0  0  0
 13 15  1  0  0  0  0
 14 13  1  0  0  0  0
 15  7  2  0  0  0  0
 16 18  1  0  0  0  0
 17 16  1  0  0  0  0
 18 20  1  0  0  0  0
 18 19  1  0  0  0  0
 18 21  1  0  0  0  0
 22 25  1  0  0  0  0
 22 16  1  0  0  0  0
 23 22  1  0  0  0  0
 24 22  1  0  0  0  0
 26 15  1  0  0  0  0
 26 27  1  0  0  0  0
 26 28  1  0  0  0  0
 28 29  1  0  0  0  0
 30 28  1  0  0  0  0
 31 28  1  0  0  0  0
 32 26  1  0  0  0  0
 33 32  1  0  0  0  0
 34 32  1  0  0  0  0
 35 32  1  0  0  0  0
 36 37  1  0  0  0  0
 37  2  2  0  0  0  0
 37 38  1  0  0  0  0
 38 41  1  0  0  0  0
 38 40  1  0  0  0  0
 39 38  1  0  0  0  0
 42 36  1  0  0  0  0
 42 43  1  0  0  0  0
 43 51  1  0  0  0  0
 44 43  2  0  0  0  0
 44 45  1  0  0  0  0
 46 44  1  0  0  0  0
 47 46  1  0  0  0  0
 48 50  1  0  0  0  0
 48 46  2  0  0  0  0
 49 48  1  0  0  0  0
 50 42  2  0  0  0  0
 51 53  1  0  0  0  0
 52 51  1  0  0  0  0
 53 55  1  0  0  0  0
 53 54  1  0  0  0  0
 53 56  1  0  0  0  0
 57 59  1  0  0  0  0
 57 60  1  0  0  0  0
 57 51  1  0  0  0  0
 58 57  1  0  0  0  0
 61 63  1  0  0  0  0
 61 50  1  0  0  0  0
 61 62  1  0  0  0  0
 63 64  1  0  0  0  0
 65 63  1  0  0  0  0
 66 63  1  0  0  0  0
 67 61  1  0  0  0  0
 68 67  1  0  0  0  0
 69 67  1  0  0  0  0
 70 67  1  0  0  0  0
M  END
