1,2
 OpenBabel05122313053D

 22 23  0  0  0  0  0  0  0  0999 V2000
    0.9171   -1.7004   -0.8417 N   0  0  0  0  0  0  0  0  0  0  0  0
   -1.6171   -1.1857   -0.5405 N   0  0  0  0  0  2  0  0  0  0  0  0
    0.0253   -2.7441   -1.1186 C   0  0  0  0  0  3  0  0  0  0  0  0
    0.7343   -3.8892   -1.5668 C   0  0  0  0  0  0  0  0  0  0  0  0
    0.2954   -4.8473   -1.8702 H   0  0  0  0  0  0  0  0  0  0  0  0
    2.0906   -3.5222   -1.5714 C   0  0  0  0  0  0  0  0  0  0  0  0
    2.9461   -4.1435   -1.8624 H   0  0  0  0  0  0  0  0  0  0  0  0
    2.1588   -2.1794   -1.1202 C   0  0  0  0  0  0  0  0  0  0  0  0
    3.0554   -1.5673   -0.9798 H   0  0  0  0  0  0  0  0  0  0  0  0
   -1.3358   -2.4269   -0.9335 C   0  0  0  0  0  3  0  0  0  0  0  0
   -2.1378   -3.1752   -1.0649 H   0  0  0  0  0  0  0  0  0  0  0  0
   -2.9645   -0.8407   -0.2863 C   0  0  0  0  0  0  0  0  0  0  0  0
   -3.3069   -0.1492    0.8973 C   0  0  0  0  0  0  0  0  0  0  0  0
   -2.5169    0.1189    1.6091 H   0  0  0  0  0  0  0  0  0  0  0  0
   -4.6397    0.1944    1.1537 C   0  0  0  0  0  0  0  0  0  0  0  0
   -4.8889    0.7297    2.0827 H   0  0  0  0  0  0  0  0  0  0  0  0
   -5.6529   -0.1325    0.2366 C   0  0  0  0  0  0  0  0  0  0  0  0
   -6.6974    0.1475    0.4390 H   0  0  0  0  0  0  0  0  0  0  0  0
   -5.3177   -0.8111   -0.9456 C   0  0  0  0  0  0  0  0  0  0  0  0
   -6.0986   -1.0588   -1.6809 H   0  0  0  0  0  0  0  0  0  0  0  0
   -3.9860   -1.1624   -1.2086 C   0  0  0  0  0  0  0  0  0  0  0  0
   -3.7191   -1.6615   -2.1520 H   0  0  0  0  0  0  0  0  0  0  0  0
  2 12  1  0  0  0  0
  3 10  1  0  0  0  0
  3  1  1  0  0  0  0
  4  3  1  0  0  0  0
  5  4  1  0  0  0  0
  6  4  2  0  0  0  0
  6  8  1  0  0  0  0
  7  6  1  0  0  0  0
  8  9  1  0  0  0  0
  8  1  2  0  0  0  0
 10  2  1  0  0  0  0
 11 10  1  0  0  0  0
 12 13  1  0  0  0  0
 13 15  2  0  0  0  0
 13 14  1  0  0  0  0
 15 16  1  0  0  0  0
 17 18  1  0  0  0  0
 17 15  1  0  0  0  0
 19 17  2  0  0  0  0
 20 19  1  0  0  0  0
 21 19  1  0  0  0  0
 21 12  2  0  0  0  0
 22 21  1  0  0  0  0
M  END
