1,3
 OpenBabel05122313053D

 24 26  0  0  0  0  0  0  0  0999 V2000
   -1.6094   -0.8870   -0.1497 N   0  0  0  0  0  2  0  0  0  0  0  0
   -2.8552   -0.5787   -0.6708 C   0  0  0  0  0  0  0  0  0  0  0  0
    0.5637   -1.9092    1.0451 N   0  0  0  0  0  2  0  0  0  0  0  0
   -1.7058   -2.1003    0.4147 C   0  0  0  0  0  0  0  0  0  0  0  0
   -3.3070    0.5612   -1.3660 C   0  0  0  0  0  0  0  0  0  0  0  0
   -2.6254    1.3972   -1.5733 H   0  0  0  0  0  0  0  0  0  0  0  0
   -0.5468   -2.7109    1.0496 C   0  0  0  0  0  0  0  0  0  0  0  0
   -3.7392   -1.6698   -0.4030 C   0  0  0  0  0  0  0  0  0  0  0  0
   -0.5240   -3.9982    1.6168 C   0  0  0  0  0  0  0  0  0  0  0  0
   -1.4246   -4.6292    1.6103 H   0  0  0  0  0  0  0  0  0  0  0  0
   -5.5147   -0.5180   -1.4966 C   0  0  0  0  0  0  0  0  0  0  0  0
   -6.5597   -0.4637   -1.8352 H   0  0  0  0  0  0  0  0  0  0  0  0
   -2.9753   -2.6059    0.2800 N   0  0  0  0  0  0  0  0  0  0  0  0
   -3.3064   -3.5053    0.6285 H   0  0  0  0  0  0  0  0  0  0  0  0
   -4.6438    0.5692   -1.7699 C   0  0  0  0  0  0  0  0  0  0  0  0
   -5.0355    1.4406   -2.3144 H   0  0  0  0  0  0  0  0  0  0  0  0
    0.6650   -4.4705    2.1841 C   0  0  0  0  0  0  0  0  0  0  0  0
    0.7056   -5.4740    2.6319 H   0  0  0  0  0  0  0  0  0  0  0  0
    1.7074   -2.3743    1.5872 C   0  0  0  0  0  0  0  0  0  0  0  0
    2.5657   -1.6849    1.5484 H   0  0  0  0  0  0  0  0  0  0  0  0
   -5.0826   -1.6579   -0.8100 C   0  0  0  0  0  0  0  0  0  0  0  0
   -5.7627   -2.4964   -0.6034 H   0  0  0  0  0  0  0  0  0  0  0  0
    1.8009   -3.6456    2.1671 C   0  0  0  0  0  0  0  0  0  0  0  0
    2.7555   -3.9782    2.5981 H   0  0  0  0  0  0  0  0  0  0  0  0
  1  4  1  0  0  0  0
  2  8  1  0  0  0  0
  2  1  1  0  0  0  0
  3  7  1  0  0  0  0
  3 19  1  0  0  0  0
  4  7  2  0  0  0  0
  5  2  2  0  0  0  0
  6  5  1  0  0  0  0
  7  9  1  0  0  0  0
  8 13  1  0  0  0  0
  9 17  2  0  0  0  0
 10  9  1  0  0  0  0
 11 21  1  0  0  0  0
 12 11  1  0  0  0  0
 13  4  1  0  0  0  0
 13 14  1  0  0  0  0
 15 11  2  0  0  0  0
 15  5  1  0  0  0  0
 16 15  1  0  0  0  0
 17 18  1  0  0  0  0
 19 23  2  0  0  0  0
 20 19  1  0  0  0  0
 21 22  1  0  0  0  0
 21  8  2  0  0  0  0
 23 17  1  0  0  0  0
 23 24  1  0  0  0  0
M  END
