4,19
 OpenBabel05122313053D

 27 26  0  0  0  0  0  0  0  0999 V2000
   -4.1753    1.4849   -0.4011 O   0  0  0  0  0  0  0  0  0  0  0  0
   -3.8278    2.3497    1.6654 O   0  0  0  0  0  0  0  0  0  0  0  0
   -4.7480    2.6544    1.5028 H   0  0  0  0  0  0  0  0  0  0  0  0
   -1.5710    0.4395   -0.5008 N   0  0  0  0  0  0  0  0  0  0  0  0
   -2.3065   -0.2227   -0.8158 H   0  0  0  0  0  0  0  0  0  0  0  0
   -1.2955    1.4070   -1.5937 C   0  0  0  0  0  0  0  0  0  0  0  0
   -2.1602    2.0954   -1.6949 H   0  0  0  0  0  0  0  0  0  0  0  0
   -1.2397    0.8115   -2.5268 H   0  0  0  0  0  0  0  0  0  0  0  0
    0.0000    2.2003   -1.4140 C   0  0  0  0  0  0  0  0  0  0  0  0
    0.0000    3.0027   -2.1803 H   0  0  0  0  0  0  0  0  0  0  0  0
   -0.0000    2.7372   -0.4402 H   0  0  0  0  0  0  0  0  0  0  0  0
   -2.0838    1.0334    0.7479 C   0  0  0  0  0  0  0  0  0  0  0  0
   -1.3737    1.7752    1.1612 H   0  0  0  0  0  0  0  0  0  0  0  0
   -2.1631    0.2111    1.4904 H   0  0  0  0  0  0  0  0  0  0  0  0
   -3.4667    1.6427    0.5749 C   0  0  0  0  0  0  0  0  0  0  0  0
    4.1752    1.4850   -0.4013 O   0  0  0  0  0  0  0  0  0  0  0  0
    3.8279    2.3496    1.6654 O   0  0  0  0  0  0  0  0  0  0  0  0
    4.7482    2.6543    1.5027 H   0  0  0  0  0  0  0  0  0  0  0  0
    1.5710    0.4395   -0.5008 N   0  0  0  0  0  0  0  0  0  0  0  0
    2.3066   -0.2227   -0.8158 H   0  0  0  0  0  0  0  0  0  0  0  0
    1.2955    1.4070   -1.5937 C   0  0  0  0  0  0  0  0  0  0  0  0
    2.1602    2.0954   -1.6948 H   0  0  0  0  0  0  0  0  0  0  0  0
    1.2398    0.8115   -2.5268 H   0  0  0  0  0  0  0  0  0  0  0  0
    2.0838    1.0334    0.7479 C   0  0  0  0  0  0  0  0  0  0  0  0
    1.3738    1.7752    1.1613 H   0  0  0  0  0  0  0  0  0  0  0  0
    2.1631    0.2110    1.4904 H   0  0  0  0  0  0  0  0  0  0  0  0
    3.4667    1.6426    0.5748 C   0  0  0  0  0  0  0  0  0  0  0  0
  1 15  2  0  0  0  0
  3  2  1  0  0  0  0
  4 12  1  0  0  0  0
  5  4  1  0  0  0  0
  6  9  1  0  0  0  0
  6  4  1  0  0  0  0
  7  6  1  0  0  0  0
  8  6  1  0  0  0  0
  9 11  1  0  0  0  0
 10  9  1  0  0  0  0
 12 13  1  0  0  0  0
 12 14  1  0  0  0  0
 15 12  1  0  0  0  0
 15  2  1  0  0  0  0
 16 27  2  0  0  0  0
 18 17  1  0  0  0  0
 19 24  1  0  0  0  0
 20 19  1  0  0  0  0
 21  9  1  0  0  0  0
 21 19  1  0  0  0  0
 22 21  1  0  0  0  0
 23 21  1  0  0  0  0
 24 25  1  0  0  0  0
 24 26  1  0  0  0  0
 27 24  1  0  0  0  0
 27 17  1  0  0  0  0
M  END
