1,2
 OpenBabel05122313053D

 48 50  0  0  0  0  0  0  0  0999 V2000
    1.9397    0.7348   -0.5157 N   0  0  0  0  0  2  0  0  0  0  0  0
   -0.8282    0.4794   -0.9767 N   0  0  0  0  0  2  0  0  0  0  0  0
    1.3098    1.5563   -1.3616 C   0  0  0  0  0  0  0  0  0  0  0  0
    1.9990    2.5661   -2.0931 C   0  0  0  0  0  0  0  0  0  0  0  0
    1.4347    3.2214   -2.7725 H   0  0  0  0  0  0  0  0  0  0  0  0
    3.3658    2.7031   -1.9271 C   0  0  0  0  0  0  0  0  0  0  0  0
    3.9257    3.4788   -2.4721 H   0  0  0  0  0  0  0  0  0  0  0  0
    4.0611    1.8314   -1.0458 C   0  0  0  0  0  0  0  0  0  0  0  0
    5.4652    1.9064   -0.8264 C   0  0  0  0  0  3  0  0  0  0  0  0
    6.0454    2.6775   -1.3560 H   0  0  0  0  0  0  0  0  0  0  0  0
    6.0858    1.0160    0.0365 C   0  0  0  0  0  0  0  0  0  0  0  0
    7.1719    1.0766    0.2019 H   0  0  0  0  0  0  0  0  0  0  0  0
    5.3284    0.0137    0.7038 C   0  0  0  0  0  0  0  0  0  0  0  0
    5.8373   -0.6979    1.3707 H   0  0  0  0  0  0  0  0  0  0  0  0
    3.9582   -0.0874    0.5218 C   0  0  0  0  0  0  0  0  0  0  0  0
    3.3785   -0.8875    1.0088 H   0  0  0  0  0  0  0  0  0  0  0  0
    3.2906    0.8242   -0.3487 C   0  0  0  0  0  0  0  0  0  0  0  0
   -0.1502    1.4293   -1.5236 C   0  0  0  0  0  3  0  0  0  0  0  0
   -0.6403    2.1982   -2.1564 H   0  0  0  0  0  0  0  0  0  0  0  0
   -2.2374    0.4597   -0.9894 C   0  0  0  0  0  0  0  0  0  0  0  0
   -2.9972    1.5641   -0.4941 C   0  0  0  0  0  0  0  0  0  0  0  0
   -4.3987    1.4170   -0.4535 C   0  0  0  0  0  0  0  0  0  0  0  0
   -5.0071    2.2513   -0.0725 H   0  0  0  0  0  0  0  0  0  0  0  0
   -5.0314    0.2441   -0.8794 C   0  0  0  0  0  0  0  0  0  0  0  0
   -6.1288    0.1664   -0.8433 H   0  0  0  0  0  0  0  0  0  0  0  0
   -4.2654   -0.8321   -1.3513 C   0  0  0  0  0  0  0  0  0  0  0  0
   -4.7652   -1.7529   -1.6833 H   0  0  0  0  0  0  0  0  0  0  0  0
   -2.8659   -0.7525   -1.4097 C   0  0  0  0  0  0  0  0  0  0  0  0
   -2.0196   -1.8823   -1.9693 C   0  0  0  0  0  0  0  0  0  0  0  0
   -1.0697   -1.8946   -1.3972 H   0  0  0  0  0  0  0  0  0  0  0  0
   -2.6461   -3.2711   -1.8186 C   0  0  0  0  0  0  0  0  0  0  0  0
   -2.9433   -3.4694   -0.7699 H   0  0  0  0  0  0  0  0  0  0  0  0
   -1.9070   -4.0435   -2.1095 H   0  0  0  0  0  0  0  0  0  0  0  0
   -3.5363   -3.4059   -2.4685 H   0  0  0  0  0  0  0  0  0  0  0  0
   -1.6365   -1.6037   -3.4358 C   0  0  0  0  0  0  0  0  0  0  0  0
   -1.1432   -0.6181   -3.5514 H   0  0  0  0  0  0  0  0  0  0  0  0
   -2.5341   -1.6127   -4.0889 H   0  0  0  0  0  0  0  0  0  0  0  0
   -0.9292   -2.3765   -3.7976 H   0  0  0  0  0  0  0  0  0  0  0  0
   -2.3832    2.8681    0.0086 C   0  0  0  0  0  0  0  0  0  0  0  0
   -1.2886    2.7222    0.1001 H   0  0  0  0  0  0  0  0  0  0  0  0
   -2.6345    4.0094   -0.9946 C   0  0  0  0  0  0  0  0  0  0  0  0
   -2.1429    4.9445   -0.6563 H   0  0  0  0  0  0  0  0  0  0  0  0
   -3.7196    4.2177   -1.0982 H   0  0  0  0  0  0  0  0  0  0  0  0
   -2.2549    3.7659   -2.0087 H   0  0  0  0  0  0  0  0  0  0  0  0
   -2.8686    3.2470    1.4177 C   0  0  0  0  0  0  0  0  0  0  0  0
   -2.5667    2.4722    2.1475 H   0  0  0  0  0  0  0  0  0  0  0  0
   -3.9676    3.3925    1.4599 H   0  0  0  0  0  0  0  0  0  0  0  0
   -2.4003    4.2018    1.7327 H   0  0  0  0  0  0  0  0  0  0  0  0
  1 17  1  0  0  0  0
  3  1  1  0  0  0  0
  4  6  1  0  0  0  0
  4  3  2  0  0  0  0
  5  4  1  0  0  0  0
  6  8  2  0  0  0  0
  7  6  1  0  0  0  0
  8  9  1  0  0  0  0
  8 17  1  0  0  0  0
  9 11  1  0  0  0  0
 10  9  1  0  0  0  0
 11 12  1  0  0  0  0
 11 13  2  0  0  0  0
 13 14  1  0  0  0  0
 15 13  1  0  0  0  0
 15 16  1  0  0  0  0
 17 15  2  0  0  0  0
 18  3  1  0  0  0  0
 18  2  1  0  0  0  0
 19 18  1  0  0  0  0
 20  2  1  0  0  0  0
 20 21  1  0  0  0  0
 21 22  2  0  0  0  0
 21 39  1  0  0  0  0
 22 23  1  0  0  0  0
 24 25  1  0  0  0  0
 24 22  1  0  0  0  0
 26 24  2  0  0  0  0
 27 26  1  0  0  0  0
 28 26  1  0  0  0  0
 28 20  2  0  0  0  0
 29 31  1  0  0  0  0
 29 28  1  0  0  0  0
 29 30  1  0  0  0  0
 31 32  1  0  0  0  0
 33 31  1  0  0  0  0
 34 31  1  0  0  0  0
 35 29  1  0  0  0  0
 36 35  1  0  0  0  0
 37 35  1  0  0  0  0
 38 35  1  0  0  0  0
 39 40  1  0  0  0  0
 39 45  1  0  0  0  0
 41 42  1  0  0  0  0
 41 39  1  0  0  0  0
 43 41  1  0  0  0  0
 44 41  1  0  0  0  0
 45 47  1  0  0  0  0
 45 48  1  0  0  0  0
 45 46  1  0  0  0  0
M  END
