1,2
 OpenBabel05122313053D

 47 49  0  0  0  0  0  0  0  0999 V2000
   -0.2640   -0.7480   -0.0544 N   0  0  0  0  0  2  0  0  0  0  0  0
   -0.3372    1.4142   -0.2943 N   0  0  0  0  0  2  0  0  0  0  0  0
    1.8327    0.3670   -0.5173 N   0  0  0  0  0  0  0  0  0  0  0  0
    2.3677    1.1099   -0.0612 H   0  0  0  0  0  0  0  0  0  0  0  0
    1.6102   -2.0773    3.5735 F   0  0  0  0  0  0  0  0  0  0  0  0
    1.5749   -0.3533    2.2519 F   0  0  0  0  0  0  0  0  0  0  0  0
   -0.2908   -1.1542    3.0328 F   0  0  0  0  0  0  0  0  0  0  0  0
    1.9577    2.3793    1.5446 F   0  0  0  0  0  0  0  0  0  0  0  0
   -0.0568    2.8640    2.2282 F   0  0  0  0  0  0  0  0  0  0  0  0
    1.4710    4.4126    2.1487 F   0  0  0  0  0  0  0  0  0  0  0  0
    4.4523    1.0361    0.2222 F   0  0  0  0  0  0  0  0  0  0  0  0
    5.9278   -0.5653    0.0657 F   0  0  0  0  0  0  0  0  0  0  0  0
    4.1307   -0.8568    1.2613 F   0  0  0  0  0  0  0  0  0  0  0  0
    0.4718    0.3455   -0.2757 C   0  0  0  0  0  3  0  0  0  0  0  0
    0.1421   -2.0623    0.1743 C   0  0  0  0  0  0  0  0  0  0  0  0
   -0.1661   -3.0454   -0.7920 C   0  0  0  0  0  0  0  0  0  0  0  0
   -0.6958   -2.7134   -1.6963 H   0  0  0  0  0  0  0  0  0  0  0  0
    0.2126   -4.3783   -0.6056 C   0  0  0  0  0  0  0  0  0  0  0  0
   -0.0272   -5.1256   -1.3774 H   0  0  0  0  0  0  0  0  0  0  0  0
    0.9108   -4.7566    0.5526 C   0  0  0  0  0  0  0  0  0  0  0  0
    1.2271   -5.7997    0.6989 H   0  0  0  0  0  0  0  0  0  0  0  0
    1.1859   -3.8003    1.5383 C   0  0  0  0  0  0  0  0  0  0  0  0
    1.6962   -4.0929    2.4660 H   0  0  0  0  0  0  0  0  0  0  0  0
    0.7953   -2.4587    1.3745 C   0  0  0  0  0  0  0  0  0  0  0  0
    0.9408   -1.5088    2.5444 C   0  0  0  0  0  0  0  0  0  0  0  0
   -0.0445    2.7019   -0.7582 C   0  0  0  0  0  0  0  0  0  0  0  0
   -0.4573    3.0855   -2.0538 C   0  0  0  0  0  0  0  0  0  0  0  0
   -0.9474    2.3182   -2.6729 H   0  0  0  0  0  0  0  0  0  0  0  0
   -0.2327    4.3848   -2.5209 C   0  0  0  0  0  0  0  0  0  0  0  0
   -0.5543    4.6583   -3.5376 H   0  0  0  0  0  0  0  0  0  0  0  0
    0.4078    5.3326   -1.7053 C   0  0  0  0  0  0  0  0  0  0  0  0
    0.5900    6.3538   -2.0710 H   0  0  0  0  0  0  0  0  0  0  0  0
    0.8114    4.9718   -0.4144 C   0  0  0  0  0  0  0  0  0  0  0  0
    1.3010    5.7062    0.2397 H   0  0  0  0  0  0  0  0  0  0  0  0
    0.5850    3.6709    0.0723 C   0  0  0  0  0  0  0  0  0  0  0  0
    0.9842    3.3381    1.4901 C   0  0  0  0  0  0  0  0  0  0  0  0
    2.5123   -0.5474   -1.3323 C   0  0  0  0  0  0  0  0  0  0  0  0
    1.8526   -1.1384   -2.4325 C   0  0  0  0  0  0  0  0  0  0  0  0
    0.8059   -0.8600   -2.6369 H   0  0  0  0  0  0  0  0  0  0  0  0
    2.5271   -2.0376   -3.2631 C   0  0  0  0  0  0  0  0  0  0  0  0
    1.9902   -2.4839   -4.1140 H   0  0  0  0  0  0  0  0  0  0  0  0
    3.8774   -2.3503   -3.0365 C   0  0  0  0  0  0  0  0  0  0  0  0
    4.4110   -3.0486   -3.6973 H   0  0  0  0  0  0  0  0  0  0  0  0
    4.5441   -1.7553   -1.9593 C   0  0  0  0  0  0  0  0  0  0  0  0
    5.6005   -1.9842   -1.7625 H   0  0  0  0  0  0  0  0  0  0  0  0
    3.8774   -0.8648   -1.0999 C   0  0  0  0  0  0  0  0  0  0  0  0
    4.5996   -0.3230    0.1065 C   0  0  0  0  0  0  0  0  0  0  0  0
  1 15  1  0  0  0  0
  2 14  1  0  0  0  0
  3 14  1  0  0  0  0
  3  4  1  0  0  0  0
  6 25  1  0  0  0  0
 12 47  1  0  0  0  0
 14  1  1  0  0  0  0
 15 24  1  0  0  0  0
 16 18  1  0  0  0  0
 16 15  2  0  0  0  0
 17 16  1  0  0  0  0
 18 20  2  0  0  0  0
 19 18  1  0  0  0  0
 20 21  1  0  0  0  0
 20 22  1  0  0  0  0
 22 23  1  0  0  0  0
 24 22  2  0  0  0  0
 24 25  1  0  0  0  0
 25  7  1  0  0  0  0
 25  5  1  0  0  0  0
 26  2  1  0  0  0  0
 26 35  1  0  0  0  0
 27 26  2  0  0  0  0
 28 27  1  0  0  0  0
 29 27  1  0  0  0  0
 29 31  2  0  0  0  0
 30 29  1  0  0  0  0
 31 33  1  0  0  0  0
 32 31  1  0  0  0  0
 33 35  2  0  0  0  0
 33 34  1  0  0  0  0
 35 36  1  0  0  0  0
 36  8  1  0  0  0  0
 36 10  1  0  0  0  0
 36  9  1  0  0  0  0
 37 46  1  0  0  0  0
 37  3  1  0  0  0  0
 38 37  2  0  0  0  0
 39 38  1  0  0  0  0
 40 42  2  0  0  0  0
 40 38  1  0  0  0  0
 41 40  1  0  0  0  0
 42 44  1  0  0  0  0
 43 42  1  0  0  0  0
 44 45  1  0  0  0  0
 44 46  2  0  0  0  0
 46 47  1  0  0  0  0
 47 11  1  0  0  0  0
 47 13  1  0  0  0  0
M  END
