1,2
 OpenBabel05122313053D

 18 17  0  0  1  0  0  0  0  0999 V2000
   -1.2969   -0.9000   -1.1503 N   0  0  0  0  0  2  0  0  0  0  0  0
   -1.3986   -0.4942    1.3300 N   0  0  0  0  0  2  0  0  0  0  0  0
   -1.2583   -1.0581   -2.3745 O   0  0  0  0  0  1  0  0  0  0  0  0
   -1.2098   -0.2165    2.6089 O   0  0  0  0  0  1  0  0  0  0  0  0
   -2.7163   -1.0373   -0.5611 C   0  0  0  0  0  0  0  0  0  0  0  0
   -2.6054   -0.7805    0.9148 C   0  0  2  0  0  3  0  0  0  0  0  0
   -3.5879    0.0224   -1.2545 C   0  0  0  0  0  0  0  0  0  0  0  0
   -3.1974   -2.4621   -0.8712 C   0  0  0  0  0  0  0  0  0  0  0  0
   -3.7617   -0.8244    1.8599 C   0  0  0  0  0  0  0  0  0  0  0  0
   -4.6352   -0.0414   -0.8988 H   0  0  0  0  0  0  0  0  0  0  0  0
   -3.2053    1.0399   -1.0379 H   0  0  0  0  0  0  0  0  0  0  0  0
   -2.5554   -3.2058   -0.3592 H   0  0  0  0  0  0  0  0  0  0  0  0
   -3.1425   -2.6338   -1.9635 H   0  0  0  0  0  0  0  0  0  0  0  0
   -4.6413   -1.3284    1.4171 H   0  0  0  0  0  0  0  0  0  0  0  0
   -3.5657   -0.1436   -2.3492 H   0  0  0  0  0  0  0  0  0  0  0  0
   -3.4604   -1.3440    2.7922 H   0  0  0  0  0  0  0  0  0  0  0  0
   -4.2437   -2.6060   -0.5374 H   0  0  0  0  0  0  0  0  0  0  0  0
   -4.0655    0.2006    2.1668 H   0  0  0  0  0  0  0  0  0  0  0  0
  1  5  1  0  0  0  0
  2  4  1  0  0  0  0
  3  1  1  0  0  0  0
  5  6  1  0  0  0  0
  6  2  1  6  0  0  0
  6  9  1  0  0  0  0
  7 11  1  0  0  0  0
  7 10  1  0  0  0  0
  7  5  1  0  0  0  0
  8  5  1  0  0  0  0
  8 17  1  0  0  0  0
  8 12  1  0  0  0  0
  9 18  1  0  0  0  0
  9 16  1  0  0  0  0
 13  8  1  0  0  0  0
 14  9  1  0  0  0  0
 15  7  1  0  0  0  0
M  END
