3,5
 OpenBabel05122313053D

 14 14  0  0  0  0  0  0  0  0999 V2000
   -6.2159   -1.3419   -0.0002 F   0  0  0  0  0  0  0  0  0  0  0  0
   -6.2159    1.3419   -0.0002 F   0  0  0  0  0  0  0  0  0  0  0  0
   -1.3599   -1.2299    0.0001 N   0  0  0  0  0  2  0  0  0  0  0  0
   -1.2727   -2.2510   -0.0002 H   0  0  0  0  0  0  0  0  0  0  0  0
   -1.3599    1.2299    0.0001 N   0  0  0  0  0  2  0  0  0  0  0  0
   -1.2727    2.2510   -0.0002 H   0  0  0  0  0  0  0  0  0  0  0  0
   -2.6130   -0.7266    0.0001 C   0  0  0  0  0  0  0  0  0  0  0  0
   -3.8442   -1.4343   -0.0000 C   0  0  0  0  0  0  0  0  0  0  0  0
   -3.8805   -2.5329   -0.0000 H   0  0  0  0  0  0  0  0  0  0  0  0
   -5.0301   -0.7133   -0.0001 C   0  0  0  0  0  0  0  0  0  0  0  0
   -5.0301    0.7133   -0.0001 C   0  0  0  0  0  0  0  0  0  0  0  0
   -3.8442    1.4343   -0.0000 C   0  0  0  0  0  0  0  0  0  0  0  0
   -3.8805    2.5329   -0.0001 H   0  0  0  0  0  0  0  0  0  0  0  0
   -2.6130    0.7266    0.0001 C   0  0  0  0  0  0  0  0  0  0  0  0
  1 10  1  0  0  0  0
  2 11  1  0  0  0  0
  4  3  1  0  0  0  0
  6  5  1  0  0  0  0
  7  3  1  0  0  0  0
  8  7  2  0  0  0  0
  9  8  1  0  0  0  0
 10  8  1  0  0  0  0
 11 10  2  0  0  0  0
 11 12  1  0  0  0  0
 12 14  2  0  0  0  0
 13 12  1  0  0  0  0
 14  7  1  0  0  0  0
 14  5  1  0  0  0  0
M  END
