2,3
 OpenBabel05122313053D

 26 27  0  0  0  0  0  0  0  0999 V2000
    1.5708    0.1102    1.7428 O   0  0  0  0  0  0  0  0  0  0  0  0
    1.3064   -1.3929   -0.4246 N   0  0  0  0  0  2  0  0  0  0  0  0
   -1.1819   -1.4500   -0.9532 N   0  0  0  0  0  2  0  0  0  0  0  0
   -2.4626   -1.6623   -1.3330 C   0  0  0  0  0  3  0  0  0  0  0  0
   -3.1942   -0.8474   -1.3811 H   0  0  0  0  0  0  0  0  0  0  0  0
   -2.6684   -3.0409   -1.6130 C   0  0  0  0  0  0  0  0  0  0  0  0
   -3.6143   -3.4918   -1.9360 H   0  0  0  0  0  0  0  0  0  0  0  0
   -1.4448   -3.6954   -1.3942 C   0  0  0  0  0  0  0  0  0  0  0  0
   -1.2214   -4.7614   -1.5209 H   0  0  0  0  0  0  0  0  0  0  0  0
   -0.5316   -2.6845   -0.9955 C   0  0  0  0  0  0  0  0  0  0  0  0
    0.8331   -2.6130   -0.6517 C   0  0  0  0  0  0  0  0  0  0  0  0
    1.4748   -3.5017   -0.5156 H   0  0  0  0  0  0  0  0  0  0  0  0
    2.6026   -1.1756    0.0699 C   0  0  0  0  0  0  0  0  0  0  0  0
    2.7391   -0.3120    1.1956 C   0  0  0  0  0  0  0  0  0  0  0  0
    4.0181    0.0338    1.6604 C   0  0  0  0  0  0  0  0  0  0  0  0
    4.1279    0.7199    2.5114 H   0  0  0  0  0  0  0  0  0  0  0  0
    5.1586   -0.5112    1.0451 C   0  0  0  0  0  0  0  0  0  0  0  0
    6.1561   -0.2362    1.4195 H   0  0  0  0  0  0  0  0  0  0  0  0
    5.0314   -1.3939   -0.0372 C   0  0  0  0  0  0  0  0  0  0  0  0
    5.9257   -1.8140   -0.5203 H   0  0  0  0  0  0  0  0  0  0  0  0
    3.7551   -1.7173   -0.5263 C   0  0  0  0  0  0  0  0  0  0  0  0
    3.6379   -2.3601   -1.4116 H   0  0  0  0  0  0  0  0  0  0  0  0
    1.5581    1.3005    2.5142 C   0  0  0  0  0  0  0  0  0  0  0  0
    2.0643    1.1654    3.4960 H   0  0  0  0  0  0  0  0  0  0  0  0
    0.4903    1.5333    2.6814 H   0  0  0  0  0  0  0  0  0  0  0  0
    2.0374    2.1372    1.9616 H   0  0  0  0  0  0  0  0  0  0  0  0
  1 23  1  0  0  0  0
  2 13  1  0  0  0  0
  4  3  1  0  0  0  0
  5  4  1  0  0  0  0
  6  8  2  0  0  0  0
  6  4  1  0  0  0  0
  7  6  1  0  0  0  0
  8 10  1  0  0  0  0
  9  8  1  0  0  0  0
 10  3  1  0  0  0  0
 10 11  2  0  0  0  0
 11 12  1  0  0  0  0
 11  2  1  0  0  0  0
 13 14  1  0  0  0  0
 14 15  2  0  0  0  0
 14  1  1  0  0  0  0
 15 16  1  0  0  0  0
 17 18  1  0  0  0  0
 17 15  1  0  0  0  0
 19 17  2  0  0  0  0
 20 19  1  0  0  0  0
 21 19  1  0  0  0  0
 21 13  2  0  0  0  0
 22 21  1  0  0  0  0
 23 25  1  0  0  0  0
 23 24  1  0  0  0  0
 26 23  1  0  0  0  0
M  END
