1,2
 OpenBabel05122313053D

 30 32  0  0  1  0  0  0  0  0999 V2000
    0.9007    0.0850    0.0155 N   0  0  2  0  0  0  0  0  0  0  0  0
   -0.8776   -2.0661    0.1718 N   0  0  0  0  0  0  0  0  0  0  0  0
   -0.8519   -2.3641    1.1574 H   0  0  0  0  0  0  0  0  0  0  0  0
   -1.7043   -2.5127   -0.2560 H   0  0  0  0  0  0  0  0  0  0  0  0
    1.4752   -1.3374   -0.0834 C   0  0  1  0  0  0  0  0  0  0  0  0
    2.5693   -1.2358   -1.1674 C   0  0  0  0  0  0  0  0  0  0  0  0
    3.5346   -0.9402   -0.7085 H   0  0  0  0  0  0  0  0  0  0  0  0
    2.7368   -2.2062   -1.6762 H   0  0  0  0  0  0  0  0  0  0  0  0
    2.0555   -0.1316   -2.1006 C   0  0  0  0  0  0  0  0  0  0  0  0
    2.8483    0.3014   -2.7411 H   0  0  0  0  0  0  0  0  0  0  0  0
    1.2655   -0.5210   -2.7750 H   0  0  0  0  0  0  0  0  0  0  0  0
    1.4661    0.9041   -1.1414 C   0  0  2  0  0  0  0  0  0  0  0  0
    0.6246    1.4789   -1.5722 H   0  0  0  0  0  0  0  0  0  0  0  0
    2.4694    1.8757   -0.4990 C   0  0  0  0  0  0  0  0  0  0  0  0
    3.4838    1.4231   -0.4497 H   0  0  0  0  0  0  0  0  0  0  0  0
    2.5548    2.8103   -1.0861 H   0  0  0  0  0  0  0  0  0  0  0  0
    1.8954    2.1017    0.9034 C   0  0  0  0  0  0  0  0  0  0  0  0
    2.6252    2.5156    1.6270 H   0  0  0  0  0  0  0  0  0  0  0  0
    1.0171    2.7744    0.8425 H   0  0  0  0  0  0  0  0  0  0  0  0
    1.4101    0.7100    1.3115 C   0  0  2  0  0  0  0  0  0  0  0  0
    0.5607    0.7634    2.0199 H   0  0  0  0  0  0  0  0  0  0  0  0
    2.4807   -0.2607    1.8344 C   0  0  0  0  0  0  0  0  0  0  0  0
    3.4743   -0.0140    1.4049 H   0  0  0  0  0  0  0  0  0  0  0  0
    2.5795   -0.2110    2.9358 H   0  0  0  0  0  0  0  0  0  0  0  0
    2.0057   -1.6251    1.3328 C   0  0  0  0  0  0  0  0  0  0  0  0
    2.7945   -2.4032    1.3195 H   0  0  0  0  0  0  0  0  0  0  0  0
    1.1856   -1.9982    1.9836 H   0  0  0  0  0  0  0  0  0  0  0  0
    0.3872   -2.3279   -0.5357 C   0  0  0  0  0  0  0  0  0  0  0  0
    0.1851   -2.1966   -1.6161 H   0  0  0  0  0  0  0  0  0  0  0  0
    0.7530   -3.3684   -0.3822 H   0  0  0  0  0  0  0  0  0  0  0  0
  1 20  1  0  0  0  0
  2  3  1  0  0  0  0
  4  2  1  0  0  0  0
  5  1  1  0  0  0  0
  5 25  1  0  0  0  0
  6  7  1  0  0  0  0
  6  5  1  0  0  0  0
  8  6  1  0  0  0  0
  9  6  1  0  0  0  0
  9 12  1  0  0  0  0
 10  9  1  0  0  0  0
 11  9  1  0  0  0  0
 12 13  1  6  0  0  0
 12 14  1  0  0  0  0
 12  1  1  0  0  0  0
 14 15  1  0  0  0  0
 14 17  1  0  0  0  0
 16 14  1  0  0  0  0
 17 20  1  0  0  0  0
 17 18  1  0  0  0  0
 19 17  1  0  0  0  0
 20 22  1  0  0  0  0
 20 21  1  1  0  0  0
 22 24  1  0  0  0  0
 23 22  1  0  0  0  0
 25 22  1  0  0  0  0
 25 27  1  0  0  0  0
 26 25  1  0  0  0  0
 28 30  1  0  0  0  0
 28  5  1  0  0  0  0
 28  2  1  0  0  0  0
 29 28  1  0  0  0  0
M  END
