1,3
 OpenBabel05122313053D

 65 68  0  0  1  0  0  0  0  0999 V2000
    0.6574   -0.2550   -1.0984 N   0  0  0  0  0  2  0  0  0  0  0  0
    0.7546   -0.1158   -2.1098 H   0  0  0  0  0  0  0  0  0  0  0  0
   -1.7222   -1.5742    0.1648 N   0  0  0  0  0  2  0  0  0  0  0  0
   -2.3671   -2.3743    0.2563 H   0  0  0  0  0  0  0  0  0  0  0  0
    2.2843    1.4387   -0.9076 N   0  0  0  0  0  0  0  0  0  0  0  0
    1.1770    0.6532    1.0116 N   0  0  0  0  0  0  0  0  0  0  0  0
   -0.0491   -0.3129    2.7484 N   0  0  0  0  0  0  0  0  0  0  0  0
   -1.0169   -0.4474    3.0734 H   0  0  0  0  0  0  0  0  0  0  0  0
   -3.4678   -0.0740    0.7351 N   0  0  0  0  0  0  0  0  0  0  0  0
   -1.2075    0.6088    0.8457 N   0  0  0  0  0  0  0  0  0  0  0  0
    1.3434    0.6033   -0.3830 C   0  0  2  0  0  3  0  0  0  0  0  0
    3.0012    1.1003   -2.1374 C   0  0  0  0  0  0  0  0  0  0  0  0
    2.8023    0.0376   -2.3837 H   0  0  0  0  0  0  0  0  0  0  0  0
    4.0907    1.1734   -1.9112 H   0  0  0  0  0  0  0  0  0  0  0  0
    2.6512    2.0769   -3.2642 C   0  0  0  0  0  0  0  0  0  0  0  0
    1.5797    1.9543   -3.5379 H   0  0  0  0  0  0  0  0  0  0  0  0
    3.2458    1.8335   -4.1686 H   0  0  0  0  0  0  0  0  0  0  0  0
    2.9114    3.5199   -2.8062 C   0  0  0  0  0  0  0  0  0  0  0  0
    4.0073    3.6604   -2.6679 H   0  0  0  0  0  0  0  0  0  0  0  0
    2.6003    4.2418   -3.5891 H   0  0  0  0  0  0  0  0  0  0  0  0
    2.1920    3.8217   -1.4842 C   0  0  0  0  0  0  0  0  0  0  0  0
    1.0918    3.8120   -1.6401 H   0  0  0  0  0  0  0  0  0  0  0  0
    2.4548    4.8351   -1.1149 H   0  0  0  0  0  0  0  0  0  0  0  0
    2.5339    2.7868   -0.4019 C   0  0  0  0  0  0  0  0  0  0  0  0
    3.6037    2.8665   -0.1021 H   0  0  0  0  0  0  0  0  0  0  0  0
    1.9213    2.9461    0.5033 H   0  0  0  0  0  0  0  0  0  0  0  0
    2.3783    0.5452    1.8042 C   0  0  0  0  0  0  0  0  0  0  0  0
    3.3154   -0.4529    1.4856 C   0  0  0  0  0  0  0  0  0  0  0  0
    3.1046   -1.1665    0.6696 H   0  0  0  0  0  0  0  0  0  0  0  0
    4.4991   -0.5382    2.2328 C   0  0  0  0  0  0  0  0  0  0  0  0
    5.2343   -1.3197    1.9889 H   0  0  0  0  0  0  0  0  0  0  0  0
    4.7361    0.3482    3.2959 C   0  0  0  0  0  0  0  0  0  0  0  0
    5.6635    0.2704    3.8830 H   0  0  0  0  0  0  0  0  0  0  0  0
    3.7831    1.3294    3.6162 C   0  0  0  0  0  0  0  0  0  0  0  0
    3.9609    2.0212    4.4533 H   0  0  0  0  0  0  0  0  0  0  0  0
    2.6032    1.4335    2.8673 C   0  0  0  0  0  0  0  0  0  0  0  0
    1.8475    2.1957    3.1083 H   0  0  0  0  0  0  0  0  0  0  0  0
   -0.0419    0.2603    1.6062 C   0  0  0  0  0  0  0  0  0  0  0  0
   -2.1452   -0.4075    0.5821 C   0  0  2  0  0  3  0  0  0  0  0  0
   -3.9273    0.8668    1.7595 C   0  0  0  0  0  0  0  0  0  0  0  0
   -3.0484    1.3802    2.1893 H   0  0  0  0  0  0  0  0  0  0  0  0
   -4.4078    0.2860    2.5844 H   0  0  0  0  0  0  0  0  0  0  0  0
   -4.9329    1.8656    1.1824 C   0  0  0  0  0  0  0  0  0  0  0  0
   -5.3070    2.5186    1.9975 H   0  0  0  0  0  0  0  0  0  0  0  0
   -4.4087    2.5192    0.4526 H   0  0  0  0  0  0  0  0  0  0  0  0
   -6.0885    1.1274    0.4953 C   0  0  0  0  0  0  0  0  0  0  0  0
   -6.7919    1.8475    0.0295 H   0  0  0  0  0  0  0  0  0  0  0  0
   -6.6725    0.5668    1.2599 H   0  0  0  0  0  0  0  0  0  0  0  0
   -5.5527    0.1460   -0.5535 C   0  0  0  0  0  0  0  0  0  0  0  0
   -6.3762   -0.4441   -1.0055 H   0  0  0  0  0  0  0  0  0  0  0  0
   -5.0673    0.7114   -1.3782 H   0  0  0  0  0  0  0  0  0  0  0  0
   -4.5217   -0.8178    0.0492 C   0  0  0  0  0  0  0  0  0  0  0  0
   -5.0224   -1.5167    0.7617 H   0  0  0  0  0  0  0  0  0  0  0  0
   -4.0545   -1.4358   -0.7417 H   0  0  0  0  0  0  0  0  0  0  0  0
   -1.3290    1.8831    0.2331 C   0  0  0  0  0  0  0  0  0  0  0  0
   -0.9488    3.0446    0.9364 C   0  0  0  0  0  0  0  0  0  0  0  0
   -0.5607    2.9514    1.9617 H   0  0  0  0  0  0  0  0  0  0  0  0
   -1.0825    4.3033    0.3340 C   0  0  0  0  0  0  0  0  0  0  0  0
   -0.7830    5.2045    0.8900 H   0  0  0  0  0  0  0  0  0  0  0  0
   -1.6111    4.4185   -0.9626 C   0  0  0  0  0  0  0  0  0  0  0  0
   -1.7240    5.4085   -1.4283 H   0  0  0  0  0  0  0  0  0  0  0  0
   -1.9905    3.2597   -1.6615 C   0  0  0  0  0  0  0  0  0  0  0  0
   -2.3940    3.3389   -2.6824 H   0  0  0  0  0  0  0  0  0  0  0  0
   -1.8408    1.9954   -1.0761 C   0  0  0  0  0  0  0  0  0  0  0  0
   -2.1067    1.0829   -1.6289 H   0  0  0  0  0  0  0  0  0  0  0  0
  2  1  1  0  0  0  0
  3  4  1  0  0  0  0
  5 24  1  0  0  0  0
  5 11  1  0  0  0  0
  6 38  1  0  0  0  0
  6 27  1  0  0  0  0
  7  8  1  0  0  0  0
  9 40  1  0  0  0  0
 10 38  1  0  0  0  0
 11  1  1  1  0  0  0
 11  6  1  0  0  0  0
 12 14  1  0  0  0  0
 12  5  1  0  0  0  0
 13 12  1  0  0  0  0
 15 18  1  0  0  0  0
 15 12  1  0  0  0  0
 16 15  1  0  0  0  0
 17 15  1  0  0  0  0
 18 19  1  0  0  0  0
 18 21  1  0  0  0  0
 20 18  1  0  0  0  0
 21 23  1  0  0  0  0
 21 24  1  0  0  0  0
 22 21  1  0  0  0  0
 24 25  1  0  0  0  0
 24 26  1  0  0  0  0
 27 36  1  0  0  0  0
 28 27  2  0  0  0  0
 28 30  1  0  0  0  0
 29 28  1  0  0  0  0
 30 32  2  0  0  0  0
 31 30  1  0  0  0  0
 32 34  1  0  0  0  0
 32 33  1  0  0  0  0
 34 35  1  0  0  0  0
 36 37  1  0  0  0  0
 36 34  2  0  0  0  0
 38  7  2  0  0  0  0
 39  3  1  6  0  0  0
 39  9  1  0  0  0  0
 39 10  1  0  0  0  0
 40 41  1  0  0  0  0
 40 42  1  0  0  0  0
 43 40  1  0  0  0  0
 43 44  1  0  0  0  0
 45 43  1  0  0  0  0
 46 43  1  0  0  0  0
 46 48  1  0  0  0  0
 47 46  1  0  0  0  0
 49 52  1  0  0  0  0
 49 46  1  0  0  0  0
 50 49  1  0  0  0  0
 51 49  1  0  0  0  0
 52  9  1  0  0  0  0
 52 53  1  0  0  0  0
 54 52  1  0  0  0  0
 55 10  1  0  0  0  0
 55 56  1  0  0  0  0
 56 57  1  0  0  0  0
 58 59  1  0  0  0  0
 58 56  2  0  0  0  0
 60 58  1  0  0  0  0
 61 60  1  0  0  0  0
 62 64  1  0  0  0  0
 62 60  2  0  0  0  0
 63 62  1  0  0  0  0
 64 55  2  0  0  0  0
 65 64  1  0  0  0  0
M  END
