5,6
 OpenBabel05122313053D

 30 32  0  0  1  0  0  0  0  0999 V2000
   -0.4320    2.3516   -0.2746 O   0  0  0  0  0  1  0  0  0  0  0  0
    0.1564   -2.5760   -0.0425 O   0  0  0  0  0  1  0  0  0  0  0  0
   -3.4780    1.9761    0.1445 O   0  0  0  0  0  0  0  0  0  0  0  0
   -1.6670   -0.4014   -2.7895 O   0  0  0  0  0  0  0  0  0  0  0  0
   -0.3491    1.1051   -0.4091 N   0  0  0  0  0  2  0  0  0  0  0  0
   -0.0657   -1.3744   -0.2920 N   0  0  0  0  0  2  0  0  0  0  0  0
   -1.6741    0.4558   -0.5922 C   0  0  1  0  0  0  0  0  0  0  0  0
   -1.5186   -1.0637   -0.5228 C   0  0  2  0  0  0  0  0  0  0  0  0
   -2.5033   -1.5435    0.5829 C   0  0  1  0  0  0  0  0  0  0  0  0
   -1.9056   -1.5564    2.0021 C   0  0  0  0  0  0  0  0  0  0  0  0
   -1.2882   -0.2019    2.3880 C   0  0  0  0  0  0  0  0  0  0  0  0
   -2.1162    1.0052    1.9148 C   0  0  0  0  0  0  0  0  0  0  0  0
   -2.7256    0.8359    0.5039 C   0  0  1  0  0  0  0  0  0  0  0  0
   -3.5841   -0.4411    0.5067 C   0  0  0  0  0  0  0  0  0  0  0  0
   -2.1486    0.7085   -2.0479 C   0  0  0  0  0  0  0  0  0  0  0  0
   -1.8873   -1.5243   -1.9598 C   0  0  0  0  0  0  0  0  0  0  0  0
   -2.9011   -2.5485    0.3377 H   0  0  0  0  0  0  0  0  0  0  0  0
   -2.7287   -1.8223    2.6999 H   0  0  0  0  0  0  0  0  0  0  0  0
   -1.1450   -2.3576    2.0853 H   0  0  0  0  0  0  0  0  0  0  0  0
   -1.1398   -0.1488    3.4864 H   0  0  0  0  0  0  0  0  0  0  0  0
   -0.2774   -0.1325    1.9387 H   0  0  0  0  0  0  0  0  0  0  0  0
   -2.9820    1.1864    2.5862 H   0  0  0  0  0  0  0  0  0  0  0  0
   -1.4952    1.9238    1.9387 H   0  0  0  0  0  0  0  0  0  0  0  0
   -4.1797   -0.5015   -0.4267 H   0  0  0  0  0  0  0  0  0  0  0  0
   -4.2934   -0.4686    1.3583 H   0  0  0  0  0  0  0  0  0  0  0  0
   -1.7260    1.6404   -2.4684 H   0  0  0  0  0  0  0  0  0  0  0  0
   -3.2607    0.7762   -2.0706 H   0  0  0  0  0  0  0  0  0  0  0  0
   -2.9588   -1.8433   -1.9800 H   0  0  0  0  0  0  0  0  0  0  0  0
   -1.2565   -2.3682   -2.2995 H   0  0  0  0  0  0  0  0  0  0  0  0
   -2.8212    2.7016    0.0950 H   0  0  0  0  0  0  0  0  0  0  0  0
  4 15  1  0  0  0  0
  4 16  1  0  0  0  0
  5  1  1  0  0  0  0
  6  2  1  0  0  0  0
  7  8  1  0  0  0  0
  7  5  1  1  0  0  0
  7 13  1  0  0  0  0
  8  6  1  1  0  0  0
  8  9  1  0  0  0  0
  9 17  1  6  0  0  0
  9 10  1  0  0  0  0
 10 19  1  0  0  0  0
 10 11  1  0  0  0  0
 10 18  1  0  0  0  0
 11 20  1  0  0  0  0
 12 23  1  0  0  0  0
 12 11  1  0  0  0  0
 12 22  1  0  0  0  0
 13  3  1  6  0  0  0
 13 14  1  0  0  0  0
 13 12  1  0  0  0  0
 14  9  1  0  0  0  0
 14 25  1  0  0  0  0
 15  7  1  0  0  0  0
 16  8  1  0  0  0  0
 21 11  1  0  0  0  0
 24 14  1  0  0  0  0
 26 15  1  0  0  0  0
 27 15  1  0  0  0  0
 28 16  1  0  0  0  0
 29 16  1  0  0  0  0
 30  3  1  0  0  0  0
M  END
