3,4
 OpenBabel05122313053D

 10  9  0  0  0  0  0  0  0  0999 V2000
   -2.6583    0.3468    0.2103 C   0  0  0  0  0  0  0  0  0  0  0  0
   -2.6450   -1.1732    0.4340 C   0  0  0  0  0  0  0  0  0  0  0  0
   -1.4008    0.7953   -0.0658 N   0  0  0  0  0  2  0  0  0  0  0  0
   -1.4942   -1.7699   -0.2863 N   0  0  0  0  0  0  0  0  0  0  0  0
   -3.7206    0.9947    0.3320 O   0  0  0  0  0  0  0  0  0  0  0  0
   -1.2026    2.0897   -0.2771 O   0  0  0  0  0  1  0  0  0  0  0  0
   -2.5330   -1.4262    1.5126 H   0  0  0  0  0  0  0  0  0  0  0  0
   -3.6252   -1.5810    0.0972 H   0  0  0  0  0  0  0  0  0  0  0  0
   -1.2984   -2.7372    0.0234 H   0  0  0  0  0  0  0  0  0  0  0  0
   -1.7150   -1.8148   -1.2928 H   0  0  0  0  0  0  0  0  0  0  0  0
  1  5  2  0  0  0  0
  1  2  1  0  0  0  0
  2  7  1  0  0  0  0
  3  1  1  0  0  0  0
  4  9  1  0  0  0  0
  4  2  1  0  0  0  0
  6  3  1  0  0  0  0
  8  2  1  0  0  0  0
 10  4  1  0  0  0  0
M  END
