1,2
 OpenBabel05122313053D

 44 47  0  0  0  0  0  0  0  0999 V2000
   -1.3589   -1.3182   -0.0119 N   0  0  0  0  0  2  0  0  0  0  0  0
   -1.3589    1.3183    0.0110 N   0  0  0  0  0  2  0  0  0  0  0  0
    1.0186   -1.4096   -0.0004 N   0  0  0  0  0  0  0  0  0  0  0  0
    1.0185    1.4097   -0.0000 N   0  0  0  0  0  0  0  0  0  0  0  0
   -0.1352   -0.7508   -0.0035 C   0  0  0  0  0  0  0  0  0  0  0  0
   -1.4533   -2.6658   -0.0138 C   0  0  0  0  0  0  0  0  0  0  0  0
   -0.2773   -3.4302   -0.0094 C   0  0  0  0  0  0  0  0  0  0  0  0
   -0.3469   -4.5254   -0.0097 H   0  0  0  0  0  0  0  0  0  0  0  0
    0.9696   -2.7627   -0.0040 C   0  0  0  0  0  0  0  0  0  0  0  0
    2.2703   -3.4759   -0.0014 C   0  0  0  0  0  0  0  0  0  0  0  0
    2.3582   -4.8863   -0.0170 C   0  0  0  0  0  0  0  0  0  0  0  0
    1.4486   -5.5035   -0.0330 H   0  0  0  0  0  0  0  0  0  0  0  0
    3.6057   -5.5219   -0.0137 C   0  0  0  0  0  0  0  0  0  0  0  0
    3.6578   -6.6208   -0.0264 H   0  0  0  0  0  0  0  0  0  0  0  0
    4.7859   -4.7605    0.0053 C   0  0  0  0  0  0  0  0  0  0  0  0
    5.7653   -5.2624    0.0080 H   0  0  0  0  0  0  0  0  0  0  0  0
    4.7105   -3.3578    0.0207 C   0  0  0  0  0  0  0  0  0  0  0  0
    5.6322   -2.7568    0.0356 H   0  0  0  0  0  0  0  0  0  0  0  0
    3.4652   -2.7202    0.0172 C   0  0  0  0  0  0  0  0  0  0  0  0
    3.3796   -1.6245    0.0289 H   0  0  0  0  0  0  0  0  0  0  0  0
   -0.1352    0.7509    0.0028 C   0  0  0  0  0  0  0  0  0  0  0  0
   -1.4534    2.6659    0.0133 C   0  0  0  0  0  0  0  0  0  0  0  0
   -0.2774    3.4303    0.0093 C   0  0  0  0  0  0  0  0  0  0  0  0
   -0.3470    4.5255    0.0098 H   0  0  0  0  0  0  0  0  0  0  0  0
    0.9695    2.7628    0.0041 C   0  0  0  0  0  0  0  0  0  0  0  0
    2.2702    3.4760    0.0013 C   0  0  0  0  0  0  0  0  0  0  0  0
    2.3582    4.8864    0.0166 C   0  0  0  0  0  0  0  0  0  0  0  0
    1.4487    5.5036    0.0323 H   0  0  0  0  0  0  0  0  0  0  0  0
    3.6057    5.5219    0.0133 C   0  0  0  0  0  0  0  0  0  0  0  0
    3.6579    6.6209    0.0256 H   0  0  0  0  0  0  0  0  0  0  0  0
    4.7859    4.7605   -0.0054 C   0  0  0  0  0  0  0  0  0  0  0  0
    5.7653    5.2623   -0.0081 H   0  0  0  0  0  0  0  0  0  0  0  0
    4.7104    3.3578   -0.0204 C   0  0  0  0  0  0  0  0  0  0  0  0
    5.6321    2.7567   -0.0351 H   0  0  0  0  0  0  0  0  0  0  0  0
    3.4651    2.7202   -0.0169 C   0  0  0  0  0  0  0  0  0  0  0  0
    3.3795    1.6245   -0.0283 H   0  0  0  0  0  0  0  0  0  0  0  0
   -2.8398   -3.2236   -0.0191 C   0  0  0  0  0  0  0  0  0  0  0  0
   -3.3878   -2.8341    0.8668 H   0  0  0  0  0  0  0  0  0  0  0  0
   -2.8560   -4.3281   -0.0212 H   0  0  0  0  0  0  0  0  0  0  0  0
   -3.3837   -2.8320   -0.9062 H   0  0  0  0  0  0  0  0  0  0  0  0
   -2.8399    3.2236    0.0186 C   0  0  0  0  0  0  0  0  0  0  0  0
   -3.3884    2.8333   -0.8666 H   0  0  0  0  0  0  0  0  0  0  0  0
   -2.8561    4.3281    0.0198 H   0  0  0  0  0  0  0  0  0  0  0  0
   -3.3833    2.8329    0.9064 H   0  0  0  0  0  0  0  0  0  0  0  0
  1  5  1  0  0  0  0
  2 22  1  0  0  0  0
  4 21  1  0  0  0  0
  4 25  2  0  0  0  0
  5  3  1  0  0  0  0
  5 21  2  0  0  0  0
  6  1  1  0  0  0  0
  6  7  2  0  0  0  0
  7  9  1  0  0  0  0
  8  7  1  0  0  0  0
  9 10  1  0  0  0  0
  9  3  2  0  0  0  0
 10 19  1  0  0  0  0
 11 13  1  0  0  0  0
 11 10  2  0  0  0  0
 12 11  1  0  0  0  0
 13 15  2  0  0  0  0
 14 13  1  0  0  0  0
 15 16  1  0  0  0  0
 15 17  1  0  0  0  0
 17 18  1  0  0  0  0
 19 17  2  0  0  0  0
 19 20  1  0  0  0  0
 21  2  1  0  0  0  0
 22 41  1  0  0  0  0
 23 24  1  0  0  0  0
 23 22  2  0  0  0  0
 25 23  1  0  0  0  0
 26 25  1  0  0  0  0
 26 27  1  0  0  0  0
 27 28  1  0  0  0  0
 29 27  2  0  0  0  0
 29 30  1  0  0  0  0
 31 29  1  0  0  0  0
 32 31  1  0  0  0  0
 33 35  1  0  0  0  0
 33 31  2  0  0  0  0
 34 33  1  0  0  0  0
 35 26  2  0  0  0  0
 36 35  1  0  0  0  0
 37  6  1  0  0  0  0
 37 38  1  0  0  0  0
 39 37  1  0  0  0  0
 40 37  1  0  0  0  0
 41 43  1  0  0  0  0
 41 44  1  0  0  0  0
 42 41  1  0  0  0  0
M  END
