3,4
 OpenBabel05122313053D

 37 38  0  0  1  0  0  0  0  0999 V2000
   -1.0009   -1.5269    1.3744 S   0  0  0  0  0  0  0  0  0  0  0  0
    1.3139    1.5126    1.4353 S   0  0  0  0  0  0  0  0  0  0  0  0
   -1.8298    1.0835    0.0088 N   0  0  0  0  0  2  0  0  0  0  0  0
    1.7426   -1.0742   -0.3381 N   0  0  0  0  0  2  0  0  0  0  0  0
   -1.9321    2.3834   -0.3291 C   0  0  0  0  0  3  0  0  0  0  0  0
   -1.0762    2.7846   -0.8983 H   0  0  0  0  0  0  0  0  0  0  0  0
   -3.0440    3.1615    0.0131 C   0  0  0  0  0  0  0  0  0  0  0  0
   -3.0853    4.2195   -0.2819 H   0  0  0  0  0  0  0  0  0  0  0  0
   -4.0830    2.5582    0.7346 C   0  0  0  0  0  0  0  0  0  0  0  0
   -4.9737    3.1344    1.0274 H   0  0  0  0  0  0  0  0  0  0  0  0
   -3.9697    1.2063    1.0833 C   0  0  0  0  0  0  0  0  0  0  0  0
   -4.7647    0.6989    1.6494 H   0  0  0  0  0  0  0  0  0  0  0  0
   -2.8248    0.4850    0.6986 C   0  0  0  0  0  0  0  0  0  0  0  0
   -2.7006   -0.9857    1.0284 C   0  0  0  0  0  0  0  0  0  0  0  0
   -3.0432   -1.6021    0.1630 H   0  0  0  0  0  0  0  0  0  0  0  0
   -3.3571   -1.2437    1.8833 H   0  0  0  0  0  0  0  0  0  0  0  0
   -0.7184   -0.6613    2.9672 C   0  0  0  0  0  0  0  0  0  0  0  0
   -1.1409    0.3627    2.8810 H   0  0  0  0  0  0  0  0  0  0  0  0
   -1.2918   -1.1964    3.7510 H   0  0  0  0  0  0  0  0  0  0  0  0
    0.7823   -0.5980    3.3085 C   0  0  0  0  0  0  0  0  0  0  0  0
    0.9235   -0.8881    4.3718 H   0  0  0  0  0  0  0  0  0  0  0  0
    1.3485   -1.3508    2.7190 H   0  0  0  0  0  0  0  0  0  0  0  0
    1.3945    0.7930    3.1252 C   0  0  0  0  0  0  0  0  0  0  0  0
    2.4559    0.8088    3.4492 H   0  0  0  0  0  0  0  0  0  0  0  0
    0.8574    1.5272    3.7622 H   0  0  0  0  0  0  0  0  0  0  0  0
    2.8552    0.8540    0.7177 C   0  0  0  0  0  0  0  0  0  0  0  0
    3.0556    1.4923   -0.1754 H   0  0  0  0  0  0  0  0  0  0  0  0
    3.6860    1.0371    1.4277 H   0  0  0  0  0  0  0  0  0  0  0  0
    2.8270   -0.5987    0.3139 C   0  0  2  0  0  3  0  0  0  0  0  0
    3.9293   -1.4327    0.5802 C   0  0  0  0  0  0  0  0  0  0  0  0
    4.7972   -1.0251    1.1192 H   0  0  0  0  0  0  0  0  0  0  0  0
    3.9103   -2.7650    0.1486 C   0  0  0  0  0  0  0  0  0  0  0  0
    4.7662   -3.4270    0.3501 H   0  0  0  0  0  0  0  0  0  0  0  0
    2.7855   -3.2363   -0.5413 C   0  0  0  0  0  0  0  0  0  0  0  0
    2.7222   -4.2719   -0.9037 H   0  0  0  0  0  0  0  0  0  0  0  0
    1.7213   -2.3537   -0.7597 C   0  0  0  0  0  0  0  0  0  0  0  0
    0.8011   -2.6551   -1.2889 H   0  0  0  0  0  0  0  0  0  0  0  0
  1 17  1  0  0  0  0
  2 23  1  0  0  0  0
  3 13  1  0  0  0  0
  4 29  1  0  0  0  0
  5  3  1  0  0  0  0
  5  7  1  0  0  0  0
  6  5  1  0  0  0  0
  7  9  2  0  0  0  0
  8  7  1  0  0  0  0
  9 10  1  0  0  0  0
  9 11  1  0  0  0  0
 11 12  1  0  0  0  0
 13 14  1  0  0  0  0
 13 11  2  0  0  0  0
 14  1  1  0  0  0  0
 14 16  1  0  0  0  0
 15 14  1  0  0  0  0
 17 20  1  0  0  0  0
 17 19  1  0  0  0  0
 18 17  1  0  0  0  0
 20 21  1  0  0  0  0
 22 20  1  0  0  0  0
 23 20  1  0  0  0  0
 23 24  1  0  0  0  0
 23 25  1  0  0  0  0
 26 28  1  0  0  0  0
 26  2  1  0  0  0  0
 27 26  1  0  0  0  0
 29 30  1  0  0  0  0
 29 26  1  6  0  0  0
 30 31  1  0  0  0  0
 32 33  1  0  0  0  0
 32 30  2  0  0  0  0
 34 32  1  0  0  0  0
 35 34  1  0  0  0  0
 36 34  2  0  0  0  0
 36  4  1  0  0  0  0
 37 36  1  0  0  0  0
M  END
