2,5
 OpenBabel05122313053D

 41 43  0  0  1  0  0  0  0  0999 V2000
   -4.8486    0.7246    1.1744 O   0  0  0  0  0  0  0  0  0  0  0  0
   -0.2154    0.2734   -0.9030 N   0  0  0  0  0  2  0  0  0  0  0  0
   -1.5436   -1.4318   -1.7460 N   0  0  0  0  0  0  0  0  0  0  0  0
   -2.5406    0.2014   -0.3775 N   0  0  0  0  0  0  0  0  0  0  0  0
    1.9797    1.1094    0.4151 N   0  0  0  0  0  2  0  0  0  0  0  0
   -1.4214   -0.2845   -1.0210 C   0  0  1  0  0  3  0  0  0  0  0  0
   -2.4109   -2.5260   -1.3295 C   0  0  0  0  0  0  0  0  0  0  0  0
   -3.0283   -2.2137   -0.4702 H   0  0  0  0  0  0  0  0  0  0  0  0
   -1.7767   -3.3737   -0.9952 H   0  0  0  0  0  0  0  0  0  0  0  0
   -3.0741   -2.8545   -2.1579 H   0  0  0  0  0  0  0  0  0  0  0  0
   -0.4700   -1.8160   -2.6571 C   0  0  0  0  0  0  0  0  0  0  0  0
    0.0151   -0.9121   -3.0648 H   0  0  0  0  0  0  0  0  0  0  0  0
   -0.9025   -2.4140   -3.4846 H   0  0  0  0  0  0  0  0  0  0  0  0
    0.3135   -2.4080   -2.1381 H   0  0  0  0  0  0  0  0  0  0  0  0
   -3.8624    0.2616   -0.9989 C   0  0  0  0  0  0  0  0  0  0  0  0
   -3.9001   -0.4098   -1.8768 H   0  0  0  0  0  0  0  0  0  0  0  0
   -4.0406    1.3040   -1.3602 H   0  0  0  0  0  0  0  0  0  0  0  0
   -4.9473   -0.0881    0.0212 C   0  0  0  0  0  0  0  0  0  0  0  0
   -5.9526    0.0822   -0.4140 H   0  0  0  0  0  0  0  0  0  0  0  0
   -4.8665   -1.1702    0.2979 H   0  0  0  0  0  0  0  0  0  0  0  0
   -3.5777    0.5704    1.7938 C   0  0  0  0  0  0  0  0  0  0  0  0
   -3.4334   -0.4875    2.1245 H   0  0  0  0  0  0  0  0  0  0  0  0
   -3.5770    1.2175    2.6928 H   0  0  0  0  0  0  0  0  0  0  0  0
   -2.4322    0.9692    0.8636 C   0  0  0  0  0  0  0  0  0  0  0  0
   -2.4817    2.0625    0.6539 H   0  0  0  0  0  0  0  0  0  0  0  0
   -1.4635    0.7321    1.3468 H   0  0  0  0  0  0  0  0  0  0  0  0
   -0.0194    1.6383   -0.8032 C   0  0  0  0  0  0  0  0  0  0  0  0
   -0.8332    2.6294   -1.3750 C   0  0  0  0  0  0  0  0  0  0  0  0
   -1.7295    2.3293   -1.9375 H   0  0  0  0  0  0  0  0  0  0  0  0
   -0.5109    4.0033   -1.2583 C   0  0  0  0  0  0  0  0  0  0  0  0
   -1.1805    4.7441   -1.7217 H   0  0  0  0  0  0  0  0  0  0  0  0
    0.6263    4.4311   -0.5841 C   0  0  0  0  0  3  0  0  0  0  0  0
    0.8682    5.5007   -0.4973 H   0  0  0  0  0  0  0  0  0  0  0  0
    1.4976    3.4667   -0.0034 C   0  0  0  0  0  0  0  0  0  0  0  0
    1.1761    2.0717   -0.1160 C   0  0  0  0  0  0  0  0  0  0  0  0
    2.6932    3.7939    0.6992 C   0  0  0  0  0  0  0  0  0  0  0  0
    2.9746    4.8530    0.8099 H   0  0  0  0  0  0  0  0  0  0  0  0
    3.4882    2.7882    1.2298 C   0  0  0  0  0  0  0  0  0  0  0  0
    4.4154    3.0204    1.7729 H   0  0  0  0  0  0  0  0  0  0  0  0
    3.0946    1.4369    1.0595 C   0  0  0  0  0  0  0  0  0  0  0  0
    3.6898    0.5883    1.4366 H   0  0  0  0  0  0  0  0  0  0  0  0
  1 21  1  0  0  0  0
  2 27  1  0  0  0  0
  3  7  1  0  0  0  0
  3  6  1  0  0  0  0
  4 24  1  0  0  0  0
  5 40  1  0  0  0  0
  6  2  1  1  0  0  0
  6  4  1  0  0  0  0
  7  9  1  0  0  0  0
  7  8  1  0  0  0  0
 10  7  1  0  0  0  0
 11 14  1  0  0  0  0
 11  3  1  0  0  0  0
 12 11  1  0  0  0  0
 13 11  1  0  0  0  0
 15  4  1  0  0  0  0
 15 18  1  0  0  0  0
 16 15  1  0  0  0  0
 17 15  1  0  0  0  0
 18 20  1  0  0  0  0
 18  1  1  0  0  0  0
 19 18  1  0  0  0  0
 21 22  1  0  0  0  0
 21 23  1  0  0  0  0
 24 26  1  0  0  0  0
 24 21  1  0  0  0  0
 25 24  1  0  0  0  0
 27 35  2  0  0  0  0
 28 30  2  0  0  0  0
 28 27  1  0  0  0  0
 29 28  1  0  0  0  0
 30 32  1  0  0  0  0
 31 30  1  0  0  0  0
 32 33  1  0  0  0  0
 32 34  1  0  0  0  0
 34 36  2  0  0  0  0
 35 34  1  0  0  0  0
 35  5  1  0  0  0  0
 36 37  1  0  0  0  0
 36 38  1  0  0  0  0
 38 39  1  0  0  0  0
 40 38  2  0  0  0  0
 40 41  1  0  0  0  0
M  END
