1,2
 OpenBabel05122313053D

 27 28  0  0  0  0  0  0  0  0999 V2000
   -1.9840   -1.1085    0.0359 N   0  0  0  0  0  2  0  0  0  0  0  0
    0.6228   -1.3398   -0.0129 N   0  0  0  0  0  2  0  0  0  0  0  0
   -1.4950   -2.3877   -0.0429 C   0  0  0  0  0  0  0  0  0  0  0  0
    2.0399   -1.3109   -0.1000 C   0  0  0  0  0  0  0  0  0  0  0  0
   -0.0445   -2.4632   -0.0757 C   0  0  0  0  0  0  0  0  0  0  0  0
    4.1940   -0.7443    0.8131 C   0  0  0  0  0  0  0  0  0  0  0  0
    4.8091   -0.3493    1.6362 H   0  0  0  0  0  0  0  0  0  0  0  0
   -2.3617   -3.4922   -0.0713 C   0  0  0  0  0  0  0  0  0  0  0  0
   -1.9478   -4.5085   -0.1380 H   0  0  0  0  0  0  0  0  0  0  0  0
    2.7967   -0.7696    0.9733 C   0  0  0  0  0  0  0  0  0  0  0  0
    4.8165   -1.2185   -0.3518 C   0  0  0  0  0  0  0  0  0  0  0  0
    5.9118   -1.1738   -0.4416 H   0  0  0  0  0  0  0  0  0  0  0  0
   -3.3081   -0.8887    0.0844 C   0  0  0  0  0  0  0  0  0  0  0  0
   -3.6125    0.1688    0.1352 H   0  0  0  0  0  0  0  0  0  0  0  0
    2.1452   -0.3222    2.2527 C   0  0  0  0  0  0  0  0  0  0  0  0
    1.6190   -1.1612    2.7542 H   0  0  0  0  0  0  0  0  0  0  0  0
    1.3894    0.4689    2.0699 H   0  0  0  0  0  0  0  0  0  0  0  0
    2.8958    0.0746    2.9609 H   0  0  0  0  0  0  0  0  0  0  0  0
   -4.2229   -1.9524    0.0641 C   0  0  0  0  0  0  0  0  0  0  0  0
   -5.3000   -1.7384    0.1100 H   0  0  0  0  0  0  0  0  0  0  0  0
    2.6546   -1.8021   -1.2703 C   0  0  0  0  0  0  0  0  0  0  0  0
    2.0261   -2.1857   -2.0879 H   0  0  0  0  0  0  0  0  0  0  0  0
    4.0467   -1.7526   -1.3969 C   0  0  0  0  0  0  0  0  0  0  0  0
    4.5272   -2.1231   -2.3139 H   0  0  0  0  0  0  0  0  0  0  0  0
   -3.7448   -3.2693   -0.0149 C   0  0  0  0  0  0  0  0  0  0  0  0
   -4.4446   -4.1175   -0.0339 H   0  0  0  0  0  0  0  0  0  0  0  0
    0.4811   -3.4327   -0.1279 H   0  0  0  0  0  0  0  0  0  0  0  0
  1 13  1  0  0  0  0
  3  1  1  0  0  0  0
  4  2  1  0  0  0  0
  4 10  1  0  0  0  0
  5  3  2  0  0  0  0
  5  2  1  0  0  0  0
  6 10  2  0  0  0  0
  6  7  1  0  0  0  0
  8  3  1  0  0  0  0
  8 25  2  0  0  0  0
  9  8  1  0  0  0  0
 10 15  1  0  0  0  0
 11  6  1  0  0  0  0
 12 11  1  0  0  0  0
 13 14  1  0  0  0  0
 15 16  1  0  0  0  0
 15 18  1  0  0  0  0
 17 15  1  0  0  0  0
 19 13  2  0  0  0  0
 19 20  1  0  0  0  0
 21  4  2  0  0  0  0
 22 21  1  0  0  0  0
 23 21  1  0  0  0  0
 23 11  2  0  0  0  0
 24 23  1  0  0  0  0
 25 19  1  0  0  0  0
 26 25  1  0  0  0  0
 27  5  1  0  0  0  0
M  END
