5,6
 OpenBabel05122313053D

 30 33  0  0  1  0  0  0  0  0999 V2000
   -3.3440   -0.2304    0.2719 S   0  0  0  0  0  0  0  0  0  0  0  0
    1.3062   -2.0351   -2.0681 S   0  0  0  0  0  0  0  0  0  0  0  0
    0.9588    3.0948   -0.0848 S   0  0  0  0  0  0  0  0  0  0  0  0
   -1.2865    1.5455    0.0150 N   0  0  0  0  0  0  0  0  0  0  0  0
   -1.0304   -1.3065   -0.7694 N   0  0  0  0  0  2  0  0  0  0  0  0
    1.3062    0.5114   -0.9721 N   0  0  0  0  0  2  0  0  0  0  0  0
   -0.7888    2.7748   -0.2375 C   0  0  0  0  0  0  0  0  0  0  0  0
   -1.6084    3.8816   -0.5273 C   0  0  0  0  0  0  0  0  0  0  0  0
   -2.9948    3.6925   -0.5694 C   0  0  0  0  0  0  0  0  0  0  0  0
   -3.5145    2.4072   -0.3722 C   0  0  0  0  0  0  0  0  0  0  0  0
   -2.6192    1.3601   -0.0871 C   0  0  0  0  0  0  0  0  0  0  0  0
   -2.3862   -1.3826   -0.6934 C   0  0  1  0  0  3  0  0  0  0  0  0
   -3.1351   -2.3823   -1.3354 C   0  0  0  0  0  0  0  0  0  0  0  0
   -2.4650   -3.3166   -2.1342 C   0  0  0  0  0  0  0  0  0  0  0  0
   -1.0944   -3.1554   -2.3425 C   0  0  0  0  0  0  0  0  0  0  0  0
   -0.4178   -2.1209   -1.6645 C   0  0  0  0  0  0  0  0  0  0  0  0
    1.8522   -0.3592   -1.8519 C   0  0  1  0  0  3  0  0  0  0  0  0
    2.9510   -0.0336   -2.6694 C   0  0  0  0  0  0  0  0  0  0  0  0
    3.4718    1.2597   -2.6132 C   0  0  0  0  0  0  0  0  0  0  0  0
    2.8197    2.2100   -1.8194 C   0  0  0  0  0  0  0  0  0  0  0  0
    1.7311    1.7988   -1.0344 C   0  0  0  0  0  0  0  0  0  0  0  0
   -1.1539    4.8619   -0.7264 H   0  0  0  0  0  0  0  0  0  0  0  0
   -3.6652    4.5359   -0.7916 H   0  0  0  0  0  0  0  0  0  0  0  0
   -4.5915    2.2029   -0.4468 H   0  0  0  0  0  0  0  0  0  0  0  0
   -4.2281   -2.3976   -1.2251 H   0  0  0  0  0  0  0  0  0  0  0  0
   -3.0179   -4.1208   -2.6412 H   0  0  0  0  0  0  0  0  0  0  0  0
   -0.5412   -3.7995   -3.0410 H   0  0  0  0  0  0  0  0  0  0  0  0
    3.3665   -0.7901   -3.3502 H   0  0  0  0  0  0  0  0  0  0  0  0
    4.3368    1.5425   -3.2307 H   0  0  0  0  0  0  0  0  0  0  0  0
    3.1218    3.2663   -1.8199 H   0  0  0  0  0  0  0  0  0  0  0  0
  2 17  1  0  0  0  0
  2 16  1  0  0  0  0
  5 12  1  0  0  0  0
  7  3  1  0  0  0  0
  7  4  2  0  0  0  0
  8  7  1  0  0  0  0
  9  8  2  0  0  0  0
  9 10  1  0  0  0  0
 10 11  2  0  0  0  0
 11  4  1  0  0  0  0
 11  1  1  0  0  0  0
 12 13  1  1  0  0  0
 12  1  1  0  0  0  0
 13 25  1  0  0  0  0
 14 13  2  0  0  0  0
 15 14  1  0  0  0  0
 15 16  2  0  0  0  0
 16  5  1  0  0  0  0
 17 18  1  1  0  0  0
 17  6  1  0  0  0  0
 18 19  2  0  0  0  0
 19 20  1  0  0  0  0
 20 21  2  0  0  0  0
 21  6  1  0  0  0  0
 21  3  1  0  0  0  0
 22  8  1  0  0  0  0
 23  9  1  0  0  0  0
 24 10  1  0  0  0  0
 26 14  1  0  0  0  0
 27 15  1  0  0  0  0
 28 18  1  0  0  0  0
 29 19  1  0  0  0  0
 30 20  1  0  0  0  0
M  END
