1,14
 OpenBabel05122313053D

 24 23  0  0  0  0  0  0  0  0999 V2000
    0.3656   -0.0244    1.4012 N   0  0  0  0  0  0  0  0  0  0  0  0
    0.4017    0.9297    1.7873 H   0  0  0  0  0  0  0  0  0  0  0  0
    0.2018   -0.6653    2.1887 H   0  0  0  0  0  0  0  0  0  0  0  0
    1.6214   -0.3943    0.6897 C   0  0  0  0  0  0  0  0  0  0  0  0
    1.5563   -1.9174    0.4757 C   0  0  0  0  0  0  0  0  0  0  0  0
    0.5957   -2.2265    0.0124 H   0  0  0  0  0  0  0  0  0  0  0  0
    2.4064   -2.2830   -0.1294 H   0  0  0  0  0  0  0  0  0  0  0  0
    1.6145   -2.4306    1.4577 H   0  0  0  0  0  0  0  0  0  0  0  0
    2.8482   -0.0475    1.5484 C   0  0  0  0  0  0  0  0  0  0  0  0
    3.7932   -0.3573    1.0617 H   0  0  0  0  0  0  0  0  0  0  0  0
    2.7860   -0.5846    2.5160 H   0  0  0  0  0  0  0  0  0  0  0  0
    2.9128    1.0363    1.7682 H   0  0  0  0  0  0  0  0  0  0  0  0
    1.6215    0.3944   -0.6897 C   0  0  0  0  0  0  0  0  0  0  0  0
    0.3656    0.0247   -1.4012 N   0  0  0  0  0  0  0  0  0  0  0  0
    0.4018   -0.9294   -1.7874 H   0  0  0  0  0  0  0  0  0  0  0  0
    0.2018    0.6657   -2.1887 H   0  0  0  0  0  0  0  0  0  0  0  0
    1.5566    1.9175   -0.4756 C   0  0  0  0  0  0  0  0  0  0  0  0
    0.5960    2.2268   -0.0123 H   0  0  0  0  0  0  0  0  0  0  0  0
    2.4068    2.2830    0.1295 H   0  0  0  0  0  0  0  0  0  0  0  0
    1.6148    2.4307   -1.4576 H   0  0  0  0  0  0  0  0  0  0  0  0
    2.8482    0.0474   -1.5483 C   0  0  0  0  0  0  0  0  0  0  0  0
    3.7933    0.3572   -1.0616 H   0  0  0  0  0  0  0  0  0  0  0  0
    2.7862    0.5846   -2.5159 H   0  0  0  0  0  0  0  0  0  0  0  0
    2.9127   -1.0364   -1.7682 H   0  0  0  0  0  0  0  0  0  0  0  0
  1  2  1  0  0  0  0
  1  3  1  0  0  0  0
  4  1  1  0  0  0  0
  4  9  1  0  0  0  0
  5  4  1  0  0  0  0
  5  8  1  0  0  0  0
  6  5  1  0  0  0  0
  7  5  1  0  0  0  0
  9 12  1  0  0  0  0
  9 11  1  0  0  0  0
 10  9  1  0  0  0  0
 13 17  1  0  0  0  0
 13  4  1  0  0  0  0
 14 13  1  0  0  0  0
 15 14  1  0  0  0  0
 16 14  1  0  0  0  0
 17 18  1  0  0  0  0
 17 19  1  0  0  0  0
 20 17  1  0  0  0  0
 21 22  1  0  0  0  0
 21 13  1  0  0  0  0
 23 21  1  0  0  0  0
 24 21  1  0  0  0  0
M  END
