1,2
 OpenBabel05122313053D

 18 17  0  0  0  0  0  0  0  0999 V2000
   -1.4590    0.0527    1.5569 N   0  0  0  0  0  0  0  0  0  0  0  0
   -1.4424   -0.0972   -1.0916 N   0  0  0  0  0  0  0  0  0  0  0  0
   -2.6768   -0.5346    0.9466 C   0  0  0  0  0  0  0  0  0  0  0  0
   -2.8325   -0.0051   -0.4881 C   0  0  0  0  0  0  0  0  0  0  0  0
   -3.7951   -0.8981   -1.2790 C   0  0  0  0  0  0  0  0  0  0  0  0
   -3.2982    1.4555   -0.5150 C   0  0  0  0  0  0  0  0  0  0  0  0
   -1.5862    1.0546    1.7826 H   0  0  0  0  0  0  0  0  0  0  0  0
   -1.2433   -0.4452    2.4327 H   0  0  0  0  0  0  0  0  0  0  0  0
   -1.3349   -1.0301   -1.5244 H   0  0  0  0  0  0  0  0  0  0  0  0
   -1.3480    0.6188   -1.8283 H   0  0  0  0  0  0  0  0  0  0  0  0
   -2.5222   -1.6305    0.9272 H   0  0  0  0  0  0  0  0  0  0  0  0
   -3.5817   -0.3111    1.5486 H   0  0  0  0  0  0  0  0  0  0  0  0
   -3.8972   -0.5412   -2.3233 H   0  0  0  0  0  0  0  0  0  0  0  0
   -4.8042   -0.8786   -0.8227 H   0  0  0  0  0  0  0  0  0  0  0  0
   -3.4491   -1.9520   -1.2932 H   0  0  0  0  0  0  0  0  0  0  0  0
   -4.2923    1.5406   -0.0356 H   0  0  0  0  0  0  0  0  0  0  0  0
   -3.4042    1.8104   -1.5606 H   0  0  0  0  0  0  0  0  0  0  0  0
   -2.5866    2.1331   -0.0054 H   0  0  0  0  0  0  0  0  0  0  0  0
  1  7  1  0  0  0  0
  1  8  1  0  0  0  0
  2  4  1  0  0  0  0
  3 12  1  0  0  0  0
  3  1  1  0  0  0  0
  4  3  1  0  0  0  0
  5 14  1  0  0  0  0
  5  4  1  0  0  0  0
  6  4  1  0  0  0  0
  6 16  1  0  0  0  0
  6 18  1  0  0  0  0
  9  2  1  0  0  0  0
 10  2  1  0  0  0  0
 11  3  1  0  0  0  0
 13  5  1  0  0  0  0
 15  5  1  0  0  0  0
 17  6  1  0  0  0  0
M  END
