5,6
 OpenBabel05122313053D

 34 38  0  0  0  0  0  0  0  0999 V2000
    9.4341   -0.0025    0.1630 O   0  0  0  0  0  0  0  0  0  0  0  0
    8.4964   -1.9773    0.0841 O   0  0  0  0  0  0  0  0  0  0  0  0
    8.4594   -0.7499    0.1024 N   0  0  0  0  0  0  0  0  0  0  0  0
    3.6034   -1.0669   -0.1460 N   0  0  0  0  0  0  0  0  0  0  0  0
   -1.2270   -1.3122   -0.3856 N   0  0  0  0  0  2  0  0  0  0  0  0
   -1.4060    1.3642   -0.3616 N   0  0  0  0  0  2  0  0  0  0  0  0
    3.4139    1.7646   -0.1158 N   0  0  0  0  0  0  0  0  0  0  0  0
    7.1164   -0.1047    0.0454 C   0  0  0  0  0  0  0  0  0  0  0  0
    5.9971   -0.9127   -0.0228 C   0  0  0  0  0  0  0  0  0  0  0  0
    6.0880   -2.0063   -0.0341 H   0  0  0  0  0  0  0  0  0  0  0  0
    4.7147   -0.2957   -0.0783 C   0  0  0  0  0  0  0  0  0  0  0  0
    2.4239   -0.4509   -0.1948 C   0  0  0  0  0  0  0  0  0  0  0  0
    1.2059   -1.2618   -0.2678 C   0  0  0  0  0  0  0  0  0  0  0  0
    1.2382   -2.6707   -0.2933 C   0  0  0  0  0  0  0  0  0  0  0  0
    2.2133   -3.1763   -0.2534 H   0  0  0  0  0  0  0  0  0  0  0  0
    0.0320   -3.3690   -0.3669 C   0  0  0  0  0  0  0  0  0  0  0  0
    0.0097   -4.4675   -0.3855 H   0  0  0  0  0  0  0  0  0  0  0  0
   -1.1780   -2.6572   -0.4121 C   0  0  0  0  0  0  0  0  0  0  0  0
   -2.1462   -3.1758   -0.4606 H   0  0  0  0  0  0  0  0  0  0  0  0
   -0.0543   -0.6169   -0.3109 C   0  0  0  0  0  0  0  0  0  0  0  0
   -0.1511    0.8300   -0.2970 C   0  0  0  0  0  0  0  0  0  0  0  0
   -1.5370    2.7039   -0.3635 C   0  0  0  0  0  0  0  0  0  0  0  0
   -2.5659    3.0892   -0.4055 H   0  0  0  0  0  0  0  0  0  0  0  0
   -0.4332    3.5703   -0.3020 C   0  0  0  0  0  0  0  0  0  0  0  0
   -0.6024    4.6561   -0.3006 H   0  0  0  0  0  0  0  0  0  0  0  0
    0.8553    3.0379   -0.2383 C   0  0  0  0  0  0  0  0  0  0  0  0
    1.7544    3.6679   -0.1867 H   0  0  0  0  0  0  0  0  0  0  0  0
    1.0117    1.6371   -0.2394 C   0  0  0  0  0  0  0  0  0  0  0  0
    2.3272    0.9961   -0.1799 C   0  0  0  0  0  0  0  0  0  0  0  0
    4.6192    1.1509   -0.0622 C   0  0  0  0  0  0  0  0  0  0  0  0
    5.8127    1.9323    0.0102 C   0  0  0  0  0  0  0  0  0  0  0  0
    5.7100    3.0267    0.0219 H   0  0  0  0  0  0  0  0  0  0  0  0
    7.0486    1.3151    0.0636 C   0  0  0  0  0  0  0  0  0  0  0  0
    7.9880    1.8807    0.1200 H   0  0  0  0  0  0  0  0  0  0  0  0
  2  3  2  0  0  0  0
  3  1  2  0  0  0  0
  4 11  1  0  0  0  0
  5 20  1  0  0  0  0
  6 21  1  0  0  0  0
  7 30  1  0  0  0  0
  8 33  1  0  0  0  0
  8  3  1  0  0  0  0
  9  8  2  0  0  0  0
 10  9  1  0  0  0  0
 11 30  2  0  0  0  0
 11  9  1  0  0  0  0
 12 29  1  0  0  0  0
 12  4  2  0  0  0  0
 13 12  1  0  0  0  0
 14 13  2  0  0  0  0
 14 15  1  0  0  0  0
 16 14  1  0  0  0  0
 17 16  1  0  0  0  0
 18  5  1  0  0  0  0
 18 16  2  0  0  0  0
 19 18  1  0  0  0  0
 20 21  2  0  0  0  0
 20 13  1  0  0  0  0
 21 28  1  0  0  0  0
 22  6  1  0  0  0  0
 22 24  2  0  0  0  0
 23 22  1  0  0  0  0
 24 25  1  0  0  0  0
 24 26  1  0  0  0  0
 26 27  1  0  0  0  0
 28 26  2  0  0  0  0
 28 29  1  0  0  0  0
 29  7  2  0  0  0  0
 30 31  1  0  0  0  0
 31 32  1  0  0  0  0
 31 33  2  0  0  0  0
 33 34  1  0  0  0  0
M  END
