1,2
 OpenBabel05122313053D

 11 10  0  0  0  0  0  0  0  0999 V2000
    1.5746    1.0270    0.0537 N   0  0  0  0  0  2  0  0  0  0  0  0
    1.1777   -1.4443   -0.2042 N   0  0  0  0  0  2  0  0  0  0  0  0
    1.6815    2.3869    0.0989 O   0  0  0  0  0  0  0  0  0  0  0  0
    2.7202    0.3766    0.0592 C   0  0  0  0  0  0  0  0  0  0  0  0
    0.8378   -2.6470   -0.1257 O   0  0  0  0  0  1  0  0  0  0  0  0
    2.5907   -1.0891   -0.0115 C   0  0  0  0  0  0  0  0  0  0  0  0
    0.7099    2.6861   -0.0085 H   0  0  0  0  0  0  0  0  0  0  0  0
    3.9167    0.9956    0.1409 N   0  0  0  0  0  0  0  0  0  0  0  0
    3.6283   -1.9422    0.1017 C   0  0  0  0  0  1  0  0  0  0  0  0
    3.9316    2.0139    0.1832 H   0  0  0  0  0  0  0  0  0  0  0  0
    4.7778    0.4531    0.1432 H   0  0  0  0  0  0  0  0  0  0  0  0
  1  4  1  0  0  0  0
  1  3  1  0  0  0  0
  2  5  1  0  0  0  0
  2  6  1  0  0  0  0
  4  8  1  0  0  0  0
  6  4  2  0  0  0  0
  6  9  1  0  0  0  0
  7  3  1  0  0  0  0
  8 11  1  0  0  0  0
  8 10  1  0  0  0  0
M  END
