2,13
 OpenBabel05122313053D

 32 34  0  0  0  0  0  0  0  0999 V2000
   -5.0709    1.1969   -3.4355 N   0  0  0  0  0  0  0  0  0  0  0  0
    1.8960    1.5936   -0.2600 N   0  0  0  0  0  2  0  0  0  0  0  0
    1.3067    2.5106    0.5648 C   0  0  0  0  0  0  0  0  0  0  0  0
    1.7397    3.8473    0.5955 C   0  0  0  0  0  0  0  0  0  0  0  0
    1.2527    4.5599    1.2754 H   0  0  0  0  0  0  0  0  0  0  0  0
    2.7667    4.2514   -0.2632 C   0  0  0  0  0  0  0  0  0  0  0  0
    3.1183    5.2934   -0.2573 H   0  0  0  0  0  0  0  0  0  0  0  0
    3.3182    3.3148   -1.1514 C   0  0  0  0  0  0  0  0  0  0  0  0
    4.0995    3.5959   -1.8709 H   0  0  0  0  0  0  0  0  0  0  0  0
    2.8503    1.9973   -1.1205 C   0  0  0  0  0  0  0  0  0  0  0  0
    3.2349    1.2371   -1.8127 H   0  0  0  0  0  0  0  0  0  0  0  0
    0.1561    1.9991    1.2919 C   0  0  0  0  0  0  0  0  0  0  0  0
   -0.1527    0.7012    1.0545 N   0  0  0  0  0  2  0  0  0  0  0  0
   -1.3405    0.4623    1.6355 N   0  0  0  0  0  0  0  0  0  0  0  0
   -1.7952    1.5839    2.2719 C   0  0  0  0  0  0  0  0  0  0  0  0
   -2.7650    1.5813    2.7806 H   0  0  0  0  0  0  0  0  0  0  0  0
   -0.8571    2.5931    2.0835 C   0  0  0  0  0  0  0  0  0  0  0  0
   -0.9182    3.6243    2.4435 H   0  0  0  0  0  0  0  0  0  0  0  0
   -3.5794   -0.0127   -0.4786 C   0  0  0  0  0  0  0  0  0  0  0  0
   -2.6782    0.1708   -1.0873 H   0  0  0  0  0  0  0  0  0  0  0  0
   -3.4601   -0.5187    0.8276 C   0  0  0  0  0  0  0  0  0  0  0  0
   -4.6150   -0.7633    1.5936 C   0  0  0  0  0  0  0  0  0  0  0  0
   -4.5217   -1.1666    2.6146 H   0  0  0  0  0  0  0  0  0  0  0  0
   -5.8878   -0.5045    1.0590 C   0  0  0  0  0  0  0  0  0  0  0  0
   -6.7869   -0.7022    1.6607 H   0  0  0  0  0  0  0  0  0  0  0  0
   -6.0167    0.0040   -0.2377 C   0  0  0  0  0  0  0  0  0  0  0  0
   -7.0086    0.2111   -0.6636 H   0  0  0  0  0  0  0  0  0  0  0  0
   -4.8583    0.2520   -1.0129 C   0  0  0  0  0  0  0  0  0  0  0  0
   -2.0844   -0.7816    1.4003 C   0  0  0  0  0  0  0  0  0  0  0  0
   -2.1549   -1.3435    2.3526 H   0  0  0  0  0  0  0  0  0  0  0  0
   -1.4634   -1.3572    0.6900 H   0  0  0  0  0  0  0  0  0  0  0  0
   -4.9772    0.7705   -2.3463 C   0  0  0  0  0  0  0  0  0  0  0  0
  1 32  3  0  0  0  0
  2  3  1  0  0  0  0
  3  4  1  0  0  0  0
  3 12  2  0  0  0  0
  4  5  1  0  0  0  0
  6  7  1  0  0  0  0
  6  4  2  0  0  0  0
  8 10  2  0  0  0  0
  8  6  1  0  0  0  0
  9  8  1  0  0  0  0
 10  2  1  0  0  0  0
 11 10  1  0  0  0  0
 12 17  1  0  0  0  0
 13 12  1  0  0  0  0
 13 14  1  0  0  0  0
 14 15  1  0  0  0  0
 15 16  1  0  0  0  0
 17 15  2  0  0  0  0
 17 18  1  0  0  0  0
 19 21  1  0  0  0  0
 20 19  1  0  0  0  0
 21 29  1  0  0  0  0
 21 22  2  0  0  0  0
 22 23  1  0  0  0  0
 24 22  1  0  0  0  0
 24 25  1  0  0  0  0
 26 24  2  0  0  0  0
 27 26  1  0  0  0  0
 28 19  2  0  0  0  0
 28 26  1  0  0  0  0
 29 14  1  0  0  0  0
 29 30  1  0  0  0  0
 31 29  1  0  0  0  0
 32 28  1  0  0  0  0
M  END
