22,23
 OpenBabel05122313053D

 52 55  0  0  1  0  0  0  0  0999 V2000
    3.4423   -0.7889    0.5994 C   0  0  0  0  0  0  0  0  0  0  0  0
    6.1610   -0.8255   -0.2468 C   0  0  0  0  0  0  0  0  0  0  0  0
    7.2108   -0.8379   -0.5733 H   0  0  0  0  0  0  0  0  0  0  0  0
    3.7973   -1.2291   -0.7056 C   0  0  0  0  0  0  0  0  0  0  0  0
    3.0229   -1.5821   -1.4011 H   0  0  0  0  0  0  0  0  0  0  0  0
    5.8198   -0.4132    1.0509 C   0  0  0  0  0  0  0  0  0  0  0  0
    6.6067   -0.0967    1.7527 H   0  0  0  0  0  0  0  0  0  0  0  0
    4.4863   -0.3960    1.4780 C   0  0  0  0  0  0  0  0  0  0  0  0
    4.2523   -0.0765    2.5024 H   0  0  0  0  0  0  0  0  0  0  0  0
    5.1364   -1.2369   -1.1140 C   0  0  0  0  0  0  0  0  0  0  0  0
    5.3799   -1.5816   -2.1310 H   0  0  0  0  0  0  0  0  0  0  0  0
    2.1158   -0.7441    1.0033 N   0  0  0  0  0  0  0  0  0  0  0  0
    0.0104    0.1573    0.5888 N   0  0  0  0  0  0  0  0  0  0  0  0
    0.9923   -0.7904    0.0646 C   0  0  2  0  0  0  0  0  0  0  0  0
    1.2977   -0.4409   -0.9478 H   0  0  0  0  0  0  0  0  0  0  0  0
    1.6786   -0.1650    2.2689 C   0  0  0  0  0  0  0  0  0  0  0  0
    2.1890    0.8104    2.4536 H   0  0  0  0  0  0  0  0  0  0  0  0
    1.9040   -0.8214    3.1368 H   0  0  0  0  0  0  0  0  0  0  0  0
    0.1615    0.0017    2.0572 C   0  0  0  0  0  0  0  0  0  0  0  0
   -0.4284   -0.8848    2.3699 H   0  0  0  0  0  0  0  0  0  0  0  0
   -0.2710    0.8692    2.5891 H   0  0  0  0  0  0  0  0  0  0  0  0
   -2.2196    1.8130    0.0783 N   0  0  0  0  0  2  0  0  0  0  0  0
   -0.8087   -2.2624   -0.6829 N   0  0  0  0  0  2  0  0  0  0  0  0
   -3.3610    2.5209    0.1306 C   0  0  0  0  0  3  0  0  0  0  0  0
   -4.2659    1.9910   -0.2123 H   0  0  0  0  0  0  0  0  0  0  0  0
    1.1547   -3.3487    0.1684 C   0  0  0  0  0  0  0  0  0  0  0  0
    2.1427   -3.2586    0.6401 H   0  0  0  0  0  0  0  0  0  0  0  0
    0.4120   -2.1937   -0.1241 C   0  0  1  0  0  3  0  0  0  0  0  0
   -0.9997    3.7046    0.9066 C   0  0  0  0  0  0  0  0  0  0  0  0
   -0.0342    4.1473    1.1942 H   0  0  0  0  0  0  0  0  0  0  0  0
   -2.1884    4.4405    0.9918 C   0  0  0  0  0  0  0  0  0  0  0  0
   -2.1745    5.4740    1.3695 H   0  0  0  0  0  0  0  0  0  0  0  0
   -3.3926    3.8462    0.5829 C   0  0  0  0  0  0  0  0  0  0  0  0
   -4.3440    4.3955    0.6190 H   0  0  0  0  0  0  0  0  0  0  0  0
   -1.0551    2.3832    0.4301 C   0  0  0  0  0  0  0  0  0  0  0  0
   -1.3386   -3.4563   -0.9997 C   0  0  0  0  0  0  0  0  0  0  0  0
   -2.3447   -3.4232   -1.4520 H   0  0  0  0  0  0  0  0  0  0  0  0
   -0.6580   -4.6577   -0.7617 C   0  0  0  0  0  0  0  0  0  0  0  0
   -1.1185   -5.6176   -1.0351 H   0  0  0  0  0  0  0  0  0  0  0  0
    0.6048   -4.5982   -0.1546 C   0  0  0  0  0  0  0  0  0  0  0  0
    1.1619   -5.5208    0.0682 H   0  0  0  0  0  0  0  0  0  0  0  0
    0.2077    1.5687    0.1895 C   0  0  2  0  0  0  0  0  0  0  0  0
    1.0462    2.0433    0.7480 H   0  0  0  0  0  0  0  0  0  0  0  0
    0.6221    1.7855   -1.5977 S   0  0  0  0  0  0  0  0  0  0  0  0
    2.4247    2.1021   -1.4766 C   0  0  0  0  0  0  0  0  0  0  0  0
    2.9056    1.3722   -0.7936 H   0  0  0  0  0  0  0  0  0  0  0  0
    2.8112    1.8870   -2.4960 H   0  0  0  0  0  0  0  0  0  0  0  0
    2.7699    3.5336   -1.0576 C   0  0  0  0  0  0  0  0  0  0  0  0
    2.3352    4.2522   -1.7950 H   0  0  0  0  0  0  0  0  0  0  0  0
    2.2892    3.7606   -0.0816 H   0  0  0  0  0  0  0  0  0  0  0  0
    4.1568    3.7067   -0.8589 O   0  0  0  0  0  0  0  0  0  0  0  0
    4.5998    3.5510   -1.7135 H   0  0  0  0  0  0  0  0  0  0  0  0
  1 12  1  0  0  0  0
  1  8  1  0  0  0  0
  2  6  1  0  0  0  0
  3  2  1  0  0  0  0
  4  1  2  0  0  0  0
  5  4  1  0  0  0  0
  6  8  2  0  0  0  0
  6  7  1  0  0  0  0
  8  9  1  0  0  0  0
 10  4  1  0  0  0  0
 10  2  2  0  0  0  0
 11 10  1  0  0  0  0
 12 16  1  0  0  0  0
 13 19  1  0  0  0  0
 14 15  1  6  0  0  0
 14 13  1  0  0  0  0
 14 12  1  0  0  0  0
 16 17  1  0  0  0  0
 16 18  1  0  0  0  0
 19 16  1  0  0  0  0
 19 20  1  0  0  0  0
 19 21  1  0  0  0  0
 22 24  1  0  0  0  0
 22 35  1  0  0  0  0
 24 33  1  0  0  0  0
 25 24  1  0  0  0  0
 26 27  1  0  0  0  0
 28 23  1  6  0  0  0
 28 14  1  0  0  0  0
 28 26  1  0  0  0  0
 29 31  1  0  0  0  0
 29 30  1  0  0  0  0
 31 32  1  0  0  0  0
 33 34  1  0  0  0  0
 33 31  2  0  0  0  0
 35 29  2  0  0  0  0
 36 38  2  0  0  0  0
 36 23  1  0  0  0  0
 37 36  1  0  0  0  0
 38 40  1  0  0  0  0
 39 38  1  0  0  0  0
 40 41  1  0  0  0  0
 40 26  2  0  0  0  0
 42 35  1  0  0  0  0
 42 13  1  0  0  0  0
 42 43  1  1  0  0  0
 44 45  1  0  0  0  0
 44 42  1  0  0  0  0
 45 48  1  0  0  0  0
 45 46  1  0  0  0  0
 47 45  1  0  0  0  0
 48 51  1  0  0  0  0
 48 50  1  0  0  0  0
 49 48  1  0  0  0  0
 52 51  1  0  0  0  0
M  END
