1,13
 OpenBabel05122313053D

 25 26  0  0  0  0  0  0  0  0999 V2000
   -0.8628   -1.5570    1.2833 N   0  0  0  0  0  2  0  0  0  0  0  0
   -1.9438   -1.6894    2.0597 C   0  0  0  0  0  3  0  0  0  0  0  0
   -2.3800   -0.7587    2.4592 H   0  0  0  0  0  0  0  0  0  0  0  0
   -2.5008   -2.9431    2.3680 C   0  0  0  0  0  0  0  0  0  0  0  0
   -3.3800   -3.0065    3.0249 H   0  0  0  0  0  0  0  0  0  0  0  0
   -1.9109   -4.0964    1.8287 C   0  0  0  0  0  0  0  0  0  0  0  0
   -2.3253   -5.0915    2.0471 H   0  0  0  0  0  0  0  0  0  0  0  0
   -0.7872   -3.9618    1.0026 C   0  0  0  0  0  0  0  0  0  0  0  0
   -0.3024   -4.8395    0.5504 H   0  0  0  0  0  0  0  0  0  0  0  0
   -0.2912   -2.6689    0.7476 C   0  0  0  0  0  0  0  0  0  0  0  0
    0.8711   -2.4164   -0.0941 C   0  0  0  0  0  3  0  0  0  0  0  0
    1.4676   -3.2658   -0.4732 H   0  0  0  0  0  0  0  0  0  0  0  0
    1.1875   -1.1822   -0.3878 N   0  0  0  0  0  2  0  0  0  0  0  0
    2.3953   -0.8486   -1.0242 C   0  0  0  0  0  0  0  0  0  0  0  0
    3.5773   -1.5968   -0.8052 C   0  0  0  0  0  0  0  0  0  0  0  0
    3.5484   -2.4384   -0.0973 H   0  0  0  0  0  0  0  0  0  0  0  0
    4.7753   -1.2582   -1.4362 C   0  0  0  0  0  0  0  0  0  0  0  0
    5.6842   -1.8455   -1.2441 H   0  0  0  0  0  0  0  0  0  0  0  0
    4.8116   -0.1490   -2.3011 C   0  0  0  0  0  0  0  0  0  0  0  0
    5.7491    0.1307   -2.8036 H   0  0  0  0  0  0  0  0  0  0  0  0
    3.6610    0.6165   -2.5169 C   0  0  0  0  0  0  0  0  0  0  0  0
    3.6926    1.4874   -3.1911 H   0  0  0  0  0  0  0  0  0  0  0  0
    2.4470    0.2907   -1.8825 C   0  0  0  0  0  0  0  0  0  0  0  0
    1.3157    1.0040   -2.0674 O   0  0  0  0  0  0  0  0  0  0  0  0
    1.4864    1.7263   -2.7024 H   0  0  0  0  0  0  0  0  0  0  0  0
  1  2  1  0  0  0  0
  2  4  1  0  0  0  0
  2  3  1  0  0  0  0
  4  5  1  0  0  0  0
  6  7  1  0  0  0  0
  6  4  2  0  0  0  0
  8  6  1  0  0  0  0
  9  8  1  0  0  0  0
 10  8  2  0  0  0  0
 10  1  1  0  0  0  0
 11 10  1  0  0  0  0
 12 11  1  0  0  0  0
 13 11  1  0  0  0  0
 14 15  1  0  0  0  0
 14 13  1  0  0  0  0
 15 16  1  0  0  0  0
 17 18  1  0  0  0  0
 17 15  2  0  0  0  0
 19 17  1  0  0  0  0
 20 19  1  0  0  0  0
 21 19  2  0  0  0  0
 21 23  1  0  0  0  0
 22 21  1  0  0  0  0
 23 14  2  0  0  0  0
 24 23  1  0  0  0  0
 25 24  1  0  0  0  0
M  END
