1,2
 OpenBabel05122313053D

 45 46  0  0  1  0  0  0  0  0999 V2000
   -1.5947    0.1159   -0.4922 N   0  0  0  0  0  2  0  0  0  0  0  0
    1.1490    0.3581    0.3063 N   0  0  0  0  0  2  0  0  0  0  0  0
   -2.5608    2.1497   -0.4855 O   0  0  0  0  0  0  0  0  0  0  0  0
    1.6141    2.5241    0.7377 O   0  0  0  0  0  0  0  0  0  0  0  0
   -2.9891   -0.1510   -0.0794 C   0  0  2  0  0  0  0  0  0  0  0  0
   -3.4132   -0.9321   -0.7408 H   0  0  0  0  0  0  0  0  0  0  0  0
   -3.6669    1.2176   -0.3218 C   0  0  0  0  0  0  0  0  0  0  0  0
   -4.2699    1.2461   -1.2522 H   0  0  0  0  0  0  0  0  0  0  0  0
   -4.2879    1.5734    0.5227 H   0  0  0  0  0  0  0  0  0  0  0  0
   -1.4503    1.3970   -0.6270 C   0  0  1  0  0  3  0  0  0  0  0  0
   -0.1458    2.1157   -0.9225 C   0  0  0  0  0  0  0  0  0  0  0  0
    0.8869    1.6001    0.0731 C   0  0  1  0  0  3  0  0  0  0  0  0
    2.4345    1.7766    1.6820 C   0  0  0  0  0  0  0  0  0  0  0  0
    2.0130    1.9449    2.6948 H   0  0  0  0  0  0  0  0  0  0  0  0
    3.4603    2.1899    1.6423 H   0  0  0  0  0  0  0  0  0  0  0  0
    2.3237    0.3071    1.2040 C   0  0  2  0  0  0  0  0  0  0  0  0
    2.0953   -0.3793    2.0439 H   0  0  0  0  0  0  0  0  0  0  0  0
    3.5739   -0.2348    0.4717 C   0  0  0  0  0  0  0  0  0  0  0  0
    3.2701   -1.2451    0.1206 H   0  0  0  0  0  0  0  0  0  0  0  0
    4.7376   -0.3902    1.4557 C   0  0  0  0  0  0  0  0  0  0  0  0
    4.4591   -1.0351    2.3145 H   0  0  0  0  0  0  0  0  0  0  0  0
    5.0833    0.5863    1.8610 H   0  0  0  0  0  0  0  0  0  0  0  0
    5.6087   -0.8590    0.9559 H   0  0  0  0  0  0  0  0  0  0  0  0
    3.9573    0.6012   -0.7520 C   0  0  0  0  0  0  0  0  0  0  0  0
    4.8267    0.1477   -1.2686 H   0  0  0  0  0  0  0  0  0  0  0  0
    4.2425    1.6430   -0.4877 H   0  0  0  0  0  0  0  0  0  0  0  0
    3.1279    0.6428   -1.4856 H   0  0  0  0  0  0  0  0  0  0  0  0
   -3.0379   -0.6713    1.3771 C   0  0  0  0  0  0  0  0  0  0  0  0
   -2.4197   -1.5954    1.3685 H   0  0  0  0  0  0  0  0  0  0  0  0
   -4.4713   -1.0480    1.7652 C   0  0  0  0  0  0  0  0  0  0  0  0
   -4.4954   -1.5094    2.7724 H   0  0  0  0  0  0  0  0  0  0  0  0
   -4.9098   -1.7750    1.0512 H   0  0  0  0  0  0  0  0  0  0  0  0
   -5.1394   -0.1604    1.7990 H   0  0  0  0  0  0  0  0  0  0  0  0
   -2.3967    0.2998    2.3731 C   0  0  0  0  0  0  0  0  0  0  0  0
   -2.4265   -0.1221    3.3974 H   0  0  0  0  0  0  0  0  0  0  0  0
   -2.9222    1.2781    2.4066 H   0  0  0  0  0  0  0  0  0  0  0  0
   -1.3329    0.4808    2.1192 H   0  0  0  0  0  0  0  0  0  0  0  0
    0.3182    1.7205   -2.3513 C   0  0  0  0  0  0  0  0  0  0  0  0
    0.4348    0.6202   -2.4267 H   0  0  0  0  0  0  0  0  0  0  0  0
    1.2893    2.2033   -2.5752 H   0  0  0  0  0  0  0  0  0  0  0  0
   -0.4277    2.0601   -3.0966 H   0  0  0  0  0  0  0  0  0  0  0  0
   -0.3167    3.6387   -0.8076 C   0  0  0  0  0  0  0  0  0  0  0  0
   -1.0696    3.9883   -1.5377 H   0  0  0  0  0  0  0  0  0  0  0  0
    0.6470    4.1376   -1.0168 H   0  0  0  0  0  0  0  0  0  0  0  0
   -0.6483    3.9383    0.2037 H   0  0  0  0  0  0  0  0  0  0  0  0
  1  5  1  0  0  0  0
  2 16  1  0  0  0  0
  3  7  1  0  0  0  0
  4 13  1  0  0  0  0
  5  6  1  6  0  0  0
  5 28  1  0  0  0  0
  7  5  1  0  0  0  0
  7  9  1  0  0  0  0
  8  7  1  0  0  0  0
 10 11  1  1  0  0  0
 10  1  1  0  0  0  0
 10  3  1  0  0  0  0
 11 42  1  0  0  0  0
 12 11  1  6  0  0  0
 12  2  1  0  0  0  0
 12  4  1  0  0  0  0
 13 14  1  0  0  0  0
 15 13  1  0  0  0  0
 16 13  1  0  0  0  0
 16 17  1  1  0  0  0
 18 16  1  0  0  0  0
 18 20  1  0  0  0  0
 19 18  1  0  0  0  0
 20 22  1  0  0  0  0
 20 21  1  0  0  0  0
 23 20  1  0  0  0  0
 24 26  1  0  0  0  0
 24 18  1  0  0  0  0
 25 24  1  0  0  0  0
 27 24  1  0  0  0  0
 28 30  1  0  0  0  0
 28 34  1  0  0  0  0
 29 28  1  0  0  0  0
 30 33  1  0  0  0  0
 30 31  1  0  0  0  0
 32 30  1  0  0  0  0
 34 36  1  0  0  0  0
 34 35  1  0  0  0  0
 37 34  1  0  0  0  0
 38 11  1  0  0  0  0
 39 38  1  0  0  0  0
 40 38  1  0  0  0  0
 41 38  1  0  0  0  0
 42 45  1  0  0  0  0
 43 42  1  0  0  0  0
 44 42  1  0  0  0  0
M  END
