3,4
 OpenBabel05122313053D

 25 26  0  0  0  0  0  0  0  0999 V2000
    1.2315   -2.2080   -0.0439 O   0  0  0  0  0  0  0  0  0  0  0  0
    0.1065   -2.2796   -0.0072 H   0  0  0  0  0  0  0  0  0  0  0  0
    1.4829   -0.9222   -0.1082 N   0  0  0  0  0  2  0  0  0  0  0  0
    1.6663    1.6375   -0.2904 N   0  0  0  0  0  2  0  0  0  0  0  0
    2.7407   -0.4932   -0.0867 C   0  0  0  0  0  0  0  0  0  0  0  0
    3.9019   -1.3984    0.0418 C   0  0  0  0  0  0  0  0  0  0  0  0
    4.0467   -2.5238   -0.7992 C   0  0  0  0  0  0  0  0  0  0  0  0
    3.2775   -2.7343   -1.5546 H   0  0  0  0  0  0  0  0  0  0  0  0
    5.1597   -3.3637   -0.6671 C   0  0  0  0  0  0  0  0  0  0  0  0
    5.2643   -4.2352   -1.3309 H   0  0  0  0  0  0  0  0  0  0  0  0
    6.1372   -3.0997    0.3064 C   0  0  0  0  0  0  0  0  0  0  0  0
    7.0085   -3.7643    0.4084 H   0  0  0  0  0  0  0  0  0  0  0  0
    5.9946   -1.9906    1.1548 C   0  0  0  0  0  0  0  0  0  0  0  0
    6.7476   -1.7874    1.9312 H   0  0  0  0  0  0  0  0  0  0  0  0
    4.8845   -1.1446    1.0252 C   0  0  0  0  0  0  0  0  0  0  0  0
    4.7576   -0.2916    1.7089 H   0  0  0  0  0  0  0  0  0  0  0  0
    2.8548    0.9519   -0.2445 C   0  0  0  0  0  0  0  0  0  0  0  0
    4.0751    1.6302   -0.4497 C   0  0  0  0  0  0  0  0  0  0  0  0
    5.0133    1.0614   -0.4181 H   0  0  0  0  0  0  0  0  0  0  0  0
    4.0665    2.9994   -0.7246 C   0  0  0  0  0  0  0  0  0  0  0  0
    5.0129    3.5354   -0.8888 H   0  0  0  0  0  0  0  0  0  0  0  0
    2.8370    3.6709   -0.8226 C   0  0  0  0  0  0  0  0  0  0  0  0
    2.7793    4.7389   -1.0729 H   0  0  0  0  0  0  0  0  0  0  0  0
    1.6625    2.9445   -0.6100 C   0  0  0  0  0  0  0  0  0  0  0  0
    0.6736    3.4094   -0.7202 H   0  0  0  0  0  0  0  0  0  0  0  0
  1  2  1  0  0  0  0
  3  5  1  0  0  0  0
  3  1  1  0  0  0  0
  4 17  1  0  0  0  0
  5  6  1  0  0  0  0
  6 15  1  0  0  0  0
  7  9  1  0  0  0  0
  7  6  2  0  0  0  0
  8  7  1  0  0  0  0
  9 11  2  0  0  0  0
 10  9  1  0  0  0  0
 11 12  1  0  0  0  0
 11 13  1  0  0  0  0
 13 14  1  0  0  0  0
 15 13  2  0  0  0  0
 15 16  1  0  0  0  0
 17  5  2  0  0  0  0
 18 19  1  0  0  0  0
 18 17  1  0  0  0  0
 20 18  2  0  0  0  0
 21 20  1  0  0  0  0
 22 20  1  0  0  0  0
 22 24  2  0  0  0  0
 23 22  1  0  0  0  0
 24  4  1  0  0  0  0
 25 24  1  0  0  0  0
M  END
