1,2
 OpenBabel05122313053D

 54 57  0  0  0  0  0  0  0  0999 V2000
    0.0995   -0.3181   -1.9958 N   0  0  0  0  0  2  0  0  0  0  0  0
   -0.1004   -0.3162    1.9966 N   0  0  0  0  0  2  0  0  0  0  0  0
   -0.8053    0.6547   -1.6455 C   0  0  0  0  0  0  0  0  0  0  0  0
   -0.6593    1.2902   -0.3668 C   0  0  0  0  0  0  0  0  0  0  0  0
   -1.7159    2.1217    0.1468 C   0  0  0  0  0  0  0  0  0  0  0  0
   -1.6466    2.7414    1.4320 C   0  0  0  0  0  0  0  0  0  0  0  0
   -0.7402    2.6031    2.0359 H   0  0  0  0  0  0  0  0  0  0  0  0
   -2.7005    3.5010    1.9248 C   0  0  0  0  0  0  0  0  0  0  0  0
   -2.6188    3.9547    2.9248 H   0  0  0  0  0  0  0  0  0  0  0  0
   -3.8764    3.7014    1.1571 C   0  0  0  0  0  0  0  0  0  0  0  0
   -4.7052    4.3025    1.5603 H   0  0  0  0  0  0  0  0  0  0  0  0
   -3.9619    3.1452   -0.1130 C   0  0  0  0  0  0  0  0  0  0  0  0
   -4.8559    3.3082   -0.7364 H   0  0  0  0  0  0  0  0  0  0  0  0
   -2.9022    2.3587   -0.6424 C   0  0  0  0  0  0  0  0  0  0  0  0
   -2.9603    1.8090   -1.9588 C   0  0  0  0  0  0  0  0  0  0  0  0
   -3.8350    2.0420   -2.5882 H   0  0  0  0  0  0  0  0  0  0  0  0
    0.8048    0.6558    1.6454 C   0  0  0  0  0  0  0  0  0  0  0  0
    0.6591    1.2902    0.3661 C   0  0  0  0  0  0  0  0  0  0  0  0
    1.7161    2.1208   -0.1483 C   0  0  0  0  0  0  0  0  0  0  0  0
    1.6471    2.7393   -1.4341 C   0  0  0  0  0  0  0  0  0  0  0  0
    0.7407    2.6008   -2.0379 H   0  0  0  0  0  0  0  0  0  0  0  0
    2.7014    3.4979   -1.9277 C   0  0  0  0  0  0  0  0  0  0  0  0
    2.6200    3.9507   -2.9280 H   0  0  0  0  0  0  0  0  0  0  0  0
    3.8774    3.6985   -1.1601 C   0  0  0  0  0  0  0  0  0  0  0  0
    4.7064    4.2988   -1.5638 H   0  0  0  0  0  0  0  0  0  0  0  0
   -1.9604    0.9966   -2.4461 C   0  0  0  0  0  0  0  0  0  0  0  0
   -2.0466    0.5857   -3.4612 H   0  0  0  0  0  0  0  0  0  0  0  0
    3.9625    3.1436    0.1106 C   0  0  0  0  0  0  0  0  0  0  0  0
    4.8566    3.3068    0.7339 H   0  0  0  0  0  0  0  0  0  0  0  0
    2.9024    2.3580    0.6407 C   0  0  0  0  0  0  0  0  0  0  0  0
    2.9602    1.8096    1.9577 C   0  0  0  0  0  0  0  0  0  0  0  0
    3.8350    2.0428    2.5869 H   0  0  0  0  0  0  0  0  0  0  0  0
    1.9600    0.9980    2.4457 C   0  0  0  0  0  0  0  0  0  0  0  0
    2.0460    0.5880    3.4612 H   0  0  0  0  0  0  0  0  0  0  0  0
    0.1571   -0.8199   -3.3638 C   0  0  0  0  0  0  0  0  0  0  0  0
   -0.8729   -1.0282   -3.7536 H   0  0  0  0  0  0  0  0  0  0  0  0
    0.9111   -2.1536   -3.3980 C   0  0  0  0  0  0  0  0  0  0  0  0
    1.9685   -2.0140   -3.0935 H   0  0  0  0  0  0  0  0  0  0  0  0
    0.9086   -2.5827   -4.4196 H   0  0  0  0  0  0  0  0  0  0  0  0
    0.4593   -2.9018   -2.7129 H   0  0  0  0  0  0  0  0  0  0  0  0
    0.8077    0.2099   -4.3014 C   0  0  0  0  0  0  0  0  0  0  0  0
    0.2459    1.1657   -4.2986 H   0  0  0  0  0  0  0  0  0  0  0  0
    0.8481   -0.1621   -5.3461 H   0  0  0  0  0  0  0  0  0  0  0  0
    1.8406    0.4302   -3.9618 H   0  0  0  0  0  0  0  0  0  0  0  0
   -0.1585   -0.8162    3.3652 C   0  0  0  0  0  0  0  0  0  0  0  0
    0.8713   -1.0253    3.7551 H   0  0  0  0  0  0  0  0  0  0  0  0
   -0.9141   -2.1490    3.4012 C   0  0  0  0  0  0  0  0  0  0  0  0
   -1.9713   -2.0084    3.0966 H   0  0  0  0  0  0  0  0  0  0  0  0
   -0.9121   -2.5768    4.4233 H   0  0  0  0  0  0  0  0  0  0  0  0
   -0.4632   -2.8986    2.7170 H   0  0  0  0  0  0  0  0  0  0  0  0
   -0.8079    0.2154    4.3016 C   0  0  0  0  0  0  0  0  0  0  0  0
   -0.2451    1.1707    4.2977 H   0  0  0  0  0  0  0  0  0  0  0  0
   -0.8487   -0.1552    5.3467 H   0  0  0  0  0  0  0  0  0  0  0  0
   -1.8406    0.4365    3.9617 H   0  0  0  0  0  0  0  0  0  0  0  0
  1  3  1  0  0  0  0
  2 45  1  0  0  0  0
  3  4  1  0  0  0  0
  4  5  2  0  0  0  0
  4 18  1  0  0  0  0
  5  6  1  0  0  0  0
  6  8  2  0  0  0  0
  6  7  1  0  0  0  0
  8  9  1  0  0  0  0
 10 11  1  0  0  0  0
 10  8  1  0  0  0  0
 12 10  2  0  0  0  0
 13 12  1  0  0  0  0
 14 12  1  0  0  0  0
 14  5  1  0  0  0  0
 15 14  2  0  0  0  0
 16 15  1  0  0  0  0
 17  2  1  0  0  0  0
 17 33  1  0  0  0  0
 18 17  2  0  0  0  0
 19 18  1  0  0  0  0
 19 30  1  0  0  0  0
 20 19  2  0  0  0  0
 21 20  1  0  0  0  0
 22 20  1  0  0  0  0
 22 24  2  0  0  0  0
 23 22  1  0  0  0  0
 24 28  1  0  0  0  0
 25 24  1  0  0  0  0
 26 15  1  0  0  0  0
 26  3  2  0  0  0  0
 27 26  1  0  0  0  0
 28 30  2  0  0  0  0
 28 29  1  0  0  0  0
 30 31  1  0  0  0  0
 31 33  2  0  0  0  0
 31 32  1  0  0  0  0
 33 34  1  0  0  0  0
 35  1  1  0  0  0  0
 36 35  1  0  0  0  0
 37 35  1  0  0  0  0
 37 38  1  0  0  0  0
 37 40  1  0  0  0  0
 39 37  1  0  0  0  0
 41 42  1  0  0  0  0
 41 44  1  0  0  0  0
 41 35  1  0  0  0  0
 43 41  1  0  0  0  0
 45 47  1  0  0  0  0
 45 46  1  0  0  0  0
 45 51  1  0  0  0  0
 47 49  1  0  0  0  0
 48 47  1  0  0  0  0
 50 47  1  0  0  0  0
 51 53  1  0  0  0  0
 52 51  1  0  0  0  0
 54 51  1  0  0  0  0
M  END
