2,3
 OpenBabel05122313053D

 24 25  0  0  0  0  0  0  0  0999 V2000
   -1.2154   -2.1949    0.0391 O   0  0  0  0  0  1  0  0  0  0  0  0
   -1.4828   -0.9356    0.0992 N   0  0  0  0  0  2  0  0  0  0  0  0
   -1.6595    1.6330    0.2917 N   0  0  0  0  0  2  0  0  0  0  0  0
   -2.7447   -0.4915    0.0864 C   0  0  0  0  0  0  0  0  0  0  0  0
   -3.9053   -1.3963   -0.0421 C   0  0  0  0  0  0  0  0  0  0  0  0
   -4.9117   -1.1228   -0.9960 C   0  0  0  0  0  0  0  0  0  0  0  0
   -4.8046   -0.2517   -1.6602 H   0  0  0  0  0  0  0  0  0  0  0  0
   -6.0210   -1.9702   -1.1244 C   0  0  0  0  0  0  0  0  0  0  0  0
   -6.7923   -1.7488   -1.8777 H   0  0  0  0  0  0  0  0  0  0  0  0
   -6.1391   -3.1043   -0.3058 C   0  0  0  0  0  0  0  0  0  0  0  0
   -7.0091   -3.7707   -0.4072 H   0  0  0  0  0  0  0  0  0  0  0  0
   -5.1371   -3.3903    0.6362 C   0  0  0  0  0  0  0  0  0  0  0  0
   -5.2213   -4.2817    1.2762 H   0  0  0  0  0  0  0  0  0  0  0  0
   -4.0260   -2.5478    0.7675 C   0  0  0  0  0  0  0  0  0  0  0  0
   -3.2375   -2.7766    1.4969 H   0  0  0  0  0  0  0  0  0  0  0  0
   -2.8509    0.9481    0.2503 C   0  0  0  0  0  0  0  0  0  0  0  0
   -4.0661    1.6377    0.4636 C   0  0  0  0  0  0  0  0  0  0  0  0
   -5.0081    1.0750    0.4375 H   0  0  0  0  0  0  0  0  0  0  0  0
   -4.0482    3.0051    0.7398 C   0  0  0  0  0  0  0  0  0  0  0  0
   -4.9913    3.5451    0.9109 H   0  0  0  0  0  0  0  0  0  0  0  0
   -2.8149    3.6730    0.8309 C   0  0  0  0  0  0  0  0  0  0  0  0
   -2.7505    4.7403    1.0818 H   0  0  0  0  0  0  0  0  0  0  0  0
   -1.6468    2.9403    0.6119 C   0  0  0  0  0  0  0  0  0  0  0  0
   -0.6547    3.3986    0.7185 H   0  0  0  0  0  0  0  0  0  0  0  0
  1  2  1  0  0  0  0
  3 23  1  0  0  0  0
  4  2  1  0  0  0  0
  4 16  2  0  0  0  0
  5  4  1  0  0  0  0
  5 14  1  0  0  0  0
  6  5  2  0  0  0  0
  7  6  1  0  0  0  0
  8  6  1  0  0  0  0
  8 10  2  0  0  0  0
  9  8  1  0  0  0  0
 10 12  1  0  0  0  0
 11 10  1  0  0  0  0
 12 14  2  0  0  0  0
 12 13  1  0  0  0  0
 14 15  1  0  0  0  0
 16  3  1  0  0  0  0
 16 17  1  0  0  0  0
 17 19  2  0  0  0  0
 18 17  1  0  0  0  0
 19 21  1  0  0  0  0
 19 20  1  0  0  0  0
 21 22  1  0  0  0  0
 23 24  1  0  0  0  0
 23 21  2  0  0  0  0
M  END
