1,2
 OpenBabel05122313053D

 24 25  0  0  0  0  0  0  0  0999 V2000
   -3.0472    0.5339   -0.1646 N   0  0  0  0  0  2  0  0  0  0  0  0
   -0.5871    1.2934   -0.1798 N   0  0  0  0  0  2  0  0  0  0  0  0
    5.2913    2.2380    0.0543 Cl  0  0  0  0  0  0  0  0  0  0  0  0
   -2.8517    1.8796   -0.3600 C   0  0  0  0  0  0  0  0  0  0  0  0
   -3.9482    2.7529   -0.5616 C   0  0  0  0  0  0  0  0  0  0  0  0
   -3.7605    3.8253   -0.7142 H   0  0  0  0  0  0  0  0  0  0  0  0
   -5.2377    2.2302   -0.5653 C   0  0  0  0  0  0  0  0  0  0  0  0
   -6.1041    2.8905   -0.7207 H   0  0  0  0  0  0  0  0  0  0  0  0
   -5.4208    0.8443   -0.3694 C   0  0  0  0  0  0  0  0  0  0  0  0
   -6.4225    0.3936   -0.3651 H   0  0  0  0  0  0  0  0  0  0  0  0
   -4.3007    0.0349   -0.1739 C   0  0  0  0  0  0  0  0  0  0  0  0
   -4.3730   -1.0517   -0.0104 H   0  0  0  0  0  0  0  0  0  0  0  0
   -1.4797    2.2692   -0.3529 C   0  0  0  0  0  0  0  0  0  0  0  0
   -1.1515    3.3078   -0.5030 H   0  0  0  0  0  0  0  0  0  0  0  0
    0.8011    1.6373   -0.1593 C   0  0  0  0  0  0  0  0  0  0  0  0
    1.5916    1.3893   -1.2943 C   0  0  0  0  0  0  0  0  0  0  0  0
    1.1128    0.9839   -2.1975 H   0  0  0  0  0  0  0  0  0  0  0  0
    2.9743    1.6061   -1.2398 C   0  0  0  0  0  0  0  0  0  0  0  0
    3.6101    1.3890   -2.1089 H   0  0  0  0  0  0  0  0  0  0  0  0
    3.5520    2.0660   -0.0466 C   0  0  0  0  0  0  0  0  0  0  0  0
    2.7641    2.3465    1.0809 C   0  0  0  0  0  0  0  0  0  0  0  0
    3.2385    2.7030    2.0057 H   0  0  0  0  0  0  0  0  0  0  0  0
    1.3811    2.1253    1.0242 C   0  0  0  0  0  0  0  0  0  0  0  0
    0.7442    2.2787    1.9074 H   0  0  0  0  0  0  0  0  0  0  0  0
  2 15  1  0  0  0  0
  4 13  2  0  0  0  0
  4  1  1  0  0  0  0
  5  4  1  0  0  0  0
  6  5  1  0  0  0  0
  7  5  2  0  0  0  0
  7  9  1  0  0  0  0
  8  7  1  0  0  0  0
  9 10  1  0  0  0  0
  9 11  2  0  0  0  0
 11  1  1  0  0  0  0
 11 12  1  0  0  0  0
 13  2  1  0  0  0  0
 14 13  1  0  0  0  0
 15 23  1  0  0  0  0
 16 18  1  0  0  0  0
 16 15  2  0  0  0  0
 17 16  1  0  0  0  0
 18 20  2  0  0  0  0
 19 18  1  0  0  0  0
 20  3  1  0  0  0  0
 20 21  1  0  0  0  0
 21 22  1  0  0  0  0
 23 21  2  0  0  0  0
 23 24  1  0  0  0  0
M  END
