1,2
 OpenBabel05122313053D

 38 39  0  0  1  0  0  0  0  0999 V2000
    0.2485    1.7770   -0.1109 N   0  0  0  0  0  2  0  0  0  0  0  0
   -0.2763   -0.4918    1.3416 N   0  0  0  0  0  0  0  0  0  0  0  0
    0.6484    2.9394   -0.6746 C   0  0  0  0  0  3  0  0  0  0  0  0
    1.7226    2.9788   -0.9247 H   0  0  0  0  0  0  0  0  0  0  0  0
   -0.2492    3.9835   -0.9140 C   0  0  0  0  0  0  0  0  0  0  0  0
    0.1158    4.9114   -1.3765 H   0  0  0  0  0  0  0  0  0  0  0  0
   -1.5959    3.8246   -0.5561 C   0  0  0  0  0  0  0  0  0  0  0  0
   -2.3229    4.6323   -0.7274 H   0  0  0  0  0  0  0  0  0  0  0  0
   -2.0037    2.6146    0.0215 C   0  0  0  0  0  0  0  0  0  0  0  0
   -3.0515    2.4270    0.2946 H   0  0  0  0  0  0  0  0  0  0  0  0
   -1.0573    1.6022    0.2268 C   0  0  0  0  0  0  0  0  0  0  0  0
   -1.4443    0.2358    0.7310 C   0  0  1  0  0  0  0  0  0  0  0  0
   -2.2408    0.3415    1.4971 H   0  0  0  0  0  0  0  0  0  0  0  0
   -1.9593   -0.6912   -0.4201 C   0  0  1  0  0  0  0  0  0  0  0  0
   -1.8661   -0.1739   -1.4005 H   0  0  0  0  0  0  0  0  0  0  0  0
   -1.0091   -1.8943   -0.4278 C   0  0  2  0  0  0  0  0  0  0  0  0
   -1.5694   -2.8220   -0.6654 H   0  0  0  0  0  0  0  0  0  0  0  0
   -0.4747   -1.9314    1.0009 C   0  0  0  0  0  0  0  0  0  0  0  0
   -1.2412   -2.3633    1.6849 H   0  0  0  0  0  0  0  0  0  0  0  0
    0.4881   -2.4637    1.1237 H   0  0  0  0  0  0  0  0  0  0  0  0
   -0.1560   -0.2682    2.7965 C   0  0  0  0  0  0  0  0  0  0  0  0
   -1.0583   -0.6518    3.3260 H   0  0  0  0  0  0  0  0  0  0  0  0
   -0.0385    0.8128    2.9982 H   0  0  0  0  0  0  0  0  0  0  0  0
    0.7507   -0.7962    3.1473 H   0  0  0  0  0  0  0  0  0  0  0  0
   -4.1824   -0.0236    0.0790 O   0  0  0  0  0  0  0  0  0  0  0  0
   -3.8670   -2.2058   -0.4457 O   0  0  0  0  0  0  0  0  0  0  0  0
   -3.4166   -1.0924   -0.2636 C   0  0  0  0  0  0  0  0  0  0  0  0
   -5.5896   -0.2871    0.2001 C   0  0  0  0  0  0  0  0  0  0  0  0
   -6.0022   -0.6504   -0.7619 H   0  0  0  0  0  0  0  0  0  0  0  0
   -6.0574    0.6717    0.4845 H   0  0  0  0  0  0  0  0  0  0  0  0
   -5.7789   -1.0574    0.9739 H   0  0  0  0  0  0  0  0  0  0  0  0
    0.0710   -1.7026   -1.5030 C   0  0  0  0  0  0  0  0  0  0  0  0
    1.0793   -2.5622   -1.3256 O   0  0  0  0  0  0  0  0  0  0  0  0
   -0.0177   -0.9016   -2.4201 O   0  0  0  0  0  0  0  0  0  0  0  0
    2.2350   -2.3681   -2.1636 C   0  0  0  0  0  0  0  0  0  0  0  0
    1.9521   -2.4247   -3.2329 H   0  0  0  0  0  0  0  0  0  0  0  0
    2.9372   -3.1747   -1.8929 H   0  0  0  0  0  0  0  0  0  0  0  0
    2.6891   -1.3798   -1.9452 H   0  0  0  0  0  0  0  0  0  0  0  0
  1 11  1  0  0  0  0
  2 21  1  0  0  0  0
  3  1  1  0  0  0  0
  4  3  1  0  0  0  0
  5  3  1  0  0  0  0
  5  7  2  0  0  0  0
  6  5  1  0  0  0  0
  7  9  1  0  0  0  0
  8  7  1  0  0  0  0
  9 11  2  0  0  0  0
  9 10  1  0  0  0  0
 11 12  1  0  0  0  0
 12  2  1  0  0  0  0
 12 13  1  1  0  0  0
 14 15  1  6  0  0  0
 14 27  1  0  0  0  0
 14 12  1  0  0  0  0
 16 17  1  6  0  0  0
 16 14  1  0  0  0  0
 16 18  1  0  0  0  0
 18 20  1  0  0  0  0
 18  2  1  0  0  0  0
 18 19  1  0  0  0  0
 21 23  1  0  0  0  0
 21 24  1  0  0  0  0
 21 22  1  0  0  0  0
 25 28  1  0  0  0  0
 26 27  2  0  0  0  0
 27 25  1  0  0  0  0
 28 30  1  0  0  0  0
 28 31  1  0  0  0  0
 29 28  1  0  0  0  0
 32 33  1  0  0  0  0
 32 16  1  0  0  0  0
 34 32  2  0  0  0  0
 35 38  1  0  0  0  0
 35 37  1  0  0  0  0
 35 33  1  0  0  0  0
 36 35  1  0  0  0  0
M  END
