4,5
 OpenBabel05122313053D

 43 46  0  0  1  0  0  0  0  0999 V2000
   -8.4812    0.5545    1.3159 F   0  0  0  0  0  0  0  0  0  0  0  0
   -8.6904    0.5801   -0.8539 F   0  0  0  0  0  0  0  0  0  0  0  0
   -8.6056   -1.3249    0.2179 F   0  0  0  0  0  0  0  0  0  0  0  0
    0.5594   -0.0042   -0.2796 N   0  0  0  0  0  2  0  0  0  0  0  0
    2.0159   -2.2359   -0.3576 N   0  0  0  0  0  2  0  0  0  0  0  0
   -0.1534    1.1626   -0.2632 C   0  0  2  0  0  3  0  0  0  0  0  0
   -1.5548    1.1691   -0.2038 C   0  0  0  0  0  0  0  0  0  0  0  0
   -2.0640    2.1406   -0.1462 H   0  0  0  0  0  0  0  0  0  0  0  0
   -2.2909   -0.0334   -0.2147 C   0  0  0  0  0  0  0  0  0  0  0  0
   -1.5438   -1.2181   -0.3367 C   0  0  0  0  0  0  0  0  0  0  0  0
   -2.0626   -2.1822   -0.4078 H   0  0  0  0  0  0  0  0  0  0  0  0
   -0.1419   -1.1810   -0.3783 C   0  0  0  0  0  0  0  0  0  0  0  0
    0.6676   -2.4027   -0.5171 C   0  0  1  0  0  3  0  0  0  0  0  0
    0.1208   -3.6678   -0.8153 C   0  0  0  0  0  0  0  0  0  0  0  0
   -0.9632   -3.7821   -0.9455 H   0  0  0  0  0  0  0  0  0  0  0  0
    0.9617   -4.7717   -0.9644 C   0  0  0  0  0  0  0  0  0  0  0  0
    0.5459   -5.7616   -1.2018 H   0  0  0  0  0  0  0  0  0  0  0  0
    2.3475   -4.5861   -0.8121 C   0  0  0  0  0  0  0  0  0  0  0  0
    3.0552   -5.4194   -0.9233 H   0  0  0  0  0  0  0  0  0  0  0  0
    2.8276   -3.3132   -0.5091 C   0  0  0  0  0  0  0  0  0  0  0  0
    3.9009   -3.1240   -0.3647 H   0  0  0  0  0  0  0  0  0  0  0  0
    0.5618    2.4605   -0.3508 C   0  0  0  0  0  0  0  0  0  0  0  0
    1.3966    2.7269   -1.4577 C   0  0  0  0  0  0  0  0  0  0  0  0
    1.5425    1.9534   -2.2247 H   0  0  0  0  0  0  0  0  0  0  0  0
    2.0271    3.9703   -1.5812 C   0  0  0  0  0  0  0  0  0  0  0  0
    2.6800    4.1649   -2.4449 H   0  0  0  0  0  0  0  0  0  0  0  0
    1.8351    4.9585   -0.6018 C   0  0  0  0  0  0  0  0  0  0  0  0
    2.3449    5.9294   -0.6919 H   0  0  0  0  0  0  0  0  0  0  0  0
    0.9976    4.7044    0.4945 C   0  0  0  0  0  0  0  0  0  0  0  0
    0.8528    5.4724    1.2688 H   0  0  0  0  0  0  0  0  0  0  0  0
    0.3544    3.4645    0.6159 C   0  0  0  0  0  0  0  0  0  0  0  0
   -0.2885    3.2562    1.4848 H   0  0  0  0  0  0  0  0  0  0  0  0
   -3.7682   -0.0489   -0.1298 C   0  0  0  0  0  0  0  0  0  0  0  0
   -4.5390    1.0060   -0.6706 C   0  0  0  0  0  0  0  0  0  0  0  0
   -4.0390    1.8369   -1.1892 H   0  0  0  0  0  0  0  0  0  0  0  0
   -5.9350    0.9901   -0.5921 C   0  0  0  0  0  0  0  0  0  0  0  0
   -6.5230    1.8073   -1.0337 H   0  0  0  0  0  0  0  0  0  0  0  0
   -6.5929   -0.0815    0.0358 C   0  0  0  0  0  0  0  0  0  0  0  0
   -5.8423   -1.1388    0.5782 C   0  0  0  0  0  0  0  0  0  0  0  0
   -6.3570   -1.9767    1.0696 H   0  0  0  0  0  0  0  0  0  0  0  0
   -4.4468   -1.1211    0.4941 C   0  0  0  0  0  0  0  0  0  0  0  0
   -3.8704   -1.9411    0.9474 H   0  0  0  0  0  0  0  0  0  0  0  0
   -8.0974   -0.0704    0.1748 C   0  0  0  0  0  0  0  0  0  0  0  0
  2 43  1  0  0  0  0
  4  6  1  0  0  0  0
  6 22  1  6  0  0  0
  6  7  1  0  0  0  0
  7  8  1  0  0  0  0
  9  7  2  0  0  0  0
  9 33  1  0  0  0  0
 10  9  1  0  0  0  0
 11 10  1  0  0  0  0
 12 10  2  0  0  0  0
 12  4  1  0  0  0  0
 13 12  1  6  0  0  0
 13  5  1  0  0  0  0
 14 13  1  0  0  0  0
 15 14  1  0  0  0  0
 16 14  2  0  0  0  0
 16 18  1  0  0  0  0
 17 16  1  0  0  0  0
 18 20  2  0  0  0  0
 19 18  1  0  0  0  0
 20 21  1  0  0  0  0
 20  5  1  0  0  0  0
 22 31  1  0  0  0  0
 23 22  2  0  0  0  0
 24 23  1  0  0  0  0
 25 23  1  0  0  0  0
 25 27  2  0  0  0  0
 26 25  1  0  0  0  0
 27 29  1  0  0  0  0
 28 27  1  0  0  0  0
 29 31  2  0  0  0  0
 29 30  1  0  0  0  0
 31 32  1  0  0  0  0
 33 41  1  0  0  0  0
 34 36  1  0  0  0  0
 34 33  2  0  0  0  0
 35 34  1  0  0  0  0
 36 38  2  0  0  0  0
 37 36  1  0  0  0  0
 38 43  1  0  0  0  0
 38 39  1  0  0  0  0
 39 40  1  0  0  0  0
 41 39  2  0  0  0  0
 41 42  1  0  0  0  0
 43  3  1  0  0  0  0
 43  1  1  0  0  0  0
M  END
