4,10
 OpenBabel05122313053D

 28 28  0  0  0  0  0  0  0  0999 V2000
    4.5376   -0.9462    0.7008 C   0  0  0  0  0  0  0  0  0  0  0  0
    3.3228   -0.8953    1.3959 C   0  0  0  0  0  0  0  0  0  0  0  0
    2.0966   -0.8421    0.7096 C   0  0  0  0  0  0  0  0  0  0  0  0
    0.8343   -0.7843    1.4315 N   0  0  0  0  0  0  0  0  0  0  0  0
    0.8603    0.1165    2.6052 C   0  0  0  0  0  0  0  0  0  0  0  0
    0.3763   -2.1309    1.8453 C   0  0  0  0  0  0  0  0  0  0  0  0
    4.5376   -0.9462   -0.7008 C   0  0  0  0  0  0  0  0  0  0  0  0
    3.3228   -0.8952   -1.3959 C   0  0  0  0  0  0  0  0  0  0  0  0
    2.0966   -0.8421   -0.7096 C   0  0  0  0  0  0  0  0  0  0  0  0
    0.8343   -0.7843   -1.4315 N   0  0  0  0  0  0  0  0  0  0  0  0
    0.8603    0.1166   -2.6052 C   0  0  0  0  0  0  0  0  0  0  0  0
    0.3763   -2.1309   -1.8453 C   0  0  0  0  0  0  0  0  0  0  0  0
    5.4854   -0.9804    1.2582 H   0  0  0  0  0  0  0  0  0  0  0  0
    3.3266   -0.8871    2.4948 H   0  0  0  0  0  0  0  0  0  0  0  0
    1.4796   -0.2942    3.4328 H   0  0  0  0  0  0  0  0  0  0  0  0
    1.2349    1.1104    2.2988 H   0  0  0  0  0  0  0  0  0  0  0  0
   -0.1766    0.2353    2.9751 H   0  0  0  0  0  0  0  0  0  0  0  0
    0.3550   -2.8136    0.9780 H   0  0  0  0  0  0  0  0  0  0  0  0
    1.0537   -2.5568    2.6190 H   0  0  0  0  0  0  0  0  0  0  0  0
   -0.6545   -2.0582    2.2418 H   0  0  0  0  0  0  0  0  0  0  0  0
    5.4854   -0.9804   -1.2582 H   0  0  0  0  0  0  0  0  0  0  0  0
    3.3266   -0.8871   -2.4948 H   0  0  0  0  0  0  0  0  0  0  0  0
    1.2349    1.1104   -2.2988 H   0  0  0  0  0  0  0  0  0  0  0  0
    1.4797   -0.2942   -3.4328 H   0  0  0  0  0  0  0  0  0  0  0  0
   -0.1766    0.2353   -2.9751 H   0  0  0  0  0  0  0  0  0  0  0  0
    1.0537   -2.5568   -2.6190 H   0  0  0  0  0  0  0  0  0  0  0  0
    0.3550   -2.8136   -0.9780 H   0  0  0  0  0  0  0  0  0  0  0  0
   -0.6545   -2.0582   -2.2418 H   0  0  0  0  0  0  0  0  0  0  0  0
  1 13  1  0  0  0  0
  1  2  1  0  0  0  0
  2 14  1  0  0  0  0
  3  2  2  0  0  0  0
  3  4  1  0  0  0  0
  4  6  1  0  0  0  0
  4  5  1  0  0  0  0
  5 17  1  0  0  0  0
  5 15  1  0  0  0  0
  6 20  1  0  0  0  0
  6 19  1  0  0  0  0
  7  1  2  0  0  0  0
  8  9  2  0  0  0  0
  8  7  1  0  0  0  0
  9  3  1  0  0  0  0
 10  9  1  0  0  0  0
 11 23  1  0  0  0  0
 11 10  1  0  0  0  0
 12 10  1  0  0  0  0
 12 27  1  0  0  0  0
 16  5  1  0  0  0  0
 18  6  1  0  0  0  0
 21  7  1  0  0  0  0
 22  8  1  0  0  0  0
 24 11  1  0  0  0  0
 25 11  1  0  0  0  0
 26 12  1  0  0  0  0
 28 12  1  0  0  0  0
M  END
