1,2
 OpenBabel05122313053D

 18 17  0  0  0  0  0  0  0  0999 V2000
    1.0393   -0.9541    1.4673 N   0  0  0  0  0  0  0  0  0  0  0  0
    1.1040   -1.0266   -1.4278 N   0  0  0  0  0  0  0  0  0  0  0  0
    1.4177   -0.3788    2.7683 C   0  0  0  0  0  0  0  0  0  0  0  0
    2.1766   -1.5675    0.7487 C   0  0  0  0  0  0  0  0  0  0  0  0
    1.7046   -2.1034   -0.5973 C   0  0  0  0  0  0  0  0  0  0  0  0
    2.0487   -0.3877   -2.3614 C   0  0  0  0  0  0  0  0  0  0  0  0
    0.3012   -1.6720    1.5991 H   0  0  0  0  0  0  0  0  0  0  0  0
    0.3208   -1.4458   -1.9529 H   0  0  0  0  0  0  0  0  0  0  0  0
    0.5117   -0.0078    3.2814 H   0  0  0  0  0  0  0  0  0  0  0  0
    2.0984    0.4794    2.6074 H   0  0  0  0  0  0  0  0  0  0  0  0
    1.9268   -1.1257    3.4169 H   0  0  0  0  0  0  0  0  0  0  0  0
    2.9552   -0.7862    0.6181 H   0  0  0  0  0  0  0  0  0  0  0  0
    2.6338   -2.3909    1.3439 H   0  0  0  0  0  0  0  0  0  0  0  0
    0.9105   -2.8582   -0.4260 H   0  0  0  0  0  0  0  0  0  0  0  0
    2.5436   -2.5981   -1.1331 H   0  0  0  0  0  0  0  0  0  0  0  0
    2.8422    0.1358   -1.7953 H   0  0  0  0  0  0  0  0  0  0  0  0
    1.5107    0.3696   -2.9612 H   0  0  0  0  0  0  0  0  0  0  0  0
    2.5218   -1.1300   -3.0416 H   0  0  0  0  0  0  0  0  0  0  0  0
  1  7  1  0  0  0  0
  1  3  1  0  0  0  0
  2  5  1  0  0  0  0
  3  9  1  0  0  0  0
  3 11  1  0  0  0  0
  4 13  1  0  0  0  0
  4  1  1  0  0  0  0
  5 14  1  0  0  0  0
  5  4  1  0  0  0  0
  6 16  1  0  0  0  0
  6  2  1  0  0  0  0
  8  2  1  0  0  0  0
 10  3  1  0  0  0  0
 12  4  1  0  0  0  0
 15  5  1  0  0  0  0
 17  6  1  0  0  0  0
 18  6  1  0  0  0  0
M  END
