1,20
 OpenBabel05122313053D

 49 50  0  0  1  0  0  0  0  0999 V2000
    2.2145    0.8944    0.2147 N   0  0  0  0  0  2  0  0  0  0  0  0
    1.6916    2.0334    0.7095 C   0  0  2  0  0  3  0  0  0  0  0  0
    2.5274    3.1115    1.0687 C   0  0  0  0  0  0  0  0  0  0  0  0
    2.0913    4.0345    1.4750 H   0  0  0  0  0  0  0  0  0  0  0  0
    3.9099    2.9983    0.8979 C   0  0  0  0  0  0  0  0  0  0  0  0
    4.5728    3.8341    1.1685 H   0  0  0  0  0  0  0  0  0  0  0  0
    4.4388    1.8042    0.3772 C   0  0  0  0  0  0  0  0  0  0  0  0
    5.5192    1.6707    0.2259 H   0  0  0  0  0  0  0  0  0  0  0  0
    3.5508    0.7780    0.0537 C   0  0  0  0  0  0  0  0  0  0  0  0
    3.8957   -0.1852   -0.3546 H   0  0  0  0  0  0  0  0  0  0  0  0
    0.1733    2.0815    0.8602 C   0  0  0  0  0  0  0  0  0  0  0  0
   -0.3523    3.3284    0.1043 C   0  0  0  0  0  0  0  0  0  0  0  0
    0.0023    3.3543   -0.9418 H   0  0  0  0  0  0  0  0  0  0  0  0
   -0.0236    4.2614    0.6021 H   0  0  0  0  0  0  0  0  0  0  0  0
   -1.4594    3.3215    0.1015 H   0  0  0  0  0  0  0  0  0  0  0  0
   -0.1471    2.2950    2.3643 C   0  0  0  0  0  0  0  0  0  0  0  0
    0.2606    1.4735    2.9837 H   0  0  0  0  0  0  0  0  0  0  0  0
   -1.2433    2.3349    2.5054 H   0  0  0  0  0  0  0  0  0  0  0  0
    0.2743    3.2502    2.7362 H   0  0  0  0  0  0  0  0  0  0  0  0
   -0.3763    0.8089    0.3421 N   0  0  0  0  0  2  0  0  0  0  0  0
   -1.7898    0.7161    0.1390 C   0  0  0  0  0  0  0  0  0  0  0  0
   -2.3580    1.0526   -1.1376 C   0  0  0  0  0  0  0  0  0  0  0  0
   -3.7452    0.9176   -1.3365 C   0  0  0  0  0  0  0  0  0  0  0  0
   -4.1732    1.1759   -2.3177 H   0  0  0  0  0  0  0  0  0  0  0  0
   -4.5866    0.4448   -0.3250 C   0  0  0  0  0  0  0  0  0  0  0  0
   -5.6688    0.3470   -0.5008 H   0  0  0  0  0  0  0  0  0  0  0  0
   -4.0320    0.0694    0.9024 C   0  0  0  0  0  0  0  0  0  0  0  0
   -4.6866   -0.3421    1.6867 H   0  0  0  0  0  0  0  0  0  0  0  0
   -2.6525    0.1870    1.1565 C   0  0  0  0  0  0  0  0  0  0  0  0
   -1.5064    1.4870   -2.3297 C   0  0  0  0  0  0  0  0  0  0  0  0
   -0.4737    1.6205   -1.9531 H   0  0  0  0  0  0  0  0  0  0  0  0
   -1.9818    2.8148   -2.9430 C   0  0  0  0  0  0  0  0  0  0  0  0
   -2.0743    3.6159   -2.1840 H   0  0  0  0  0  0  0  0  0  0  0  0
   -2.9724    2.7044   -3.4308 H   0  0  0  0  0  0  0  0  0  0  0  0
   -1.2713    3.1591   -3.7226 H   0  0  0  0  0  0  0  0  0  0  0  0
   -1.4490    0.3932   -3.4127 C   0  0  0  0  0  0  0  0  0  0  0  0
   -0.9449   -0.5203   -3.0405 H   0  0  0  0  0  0  0  0  0  0  0  0
   -0.8792    0.7528   -4.2942 H   0  0  0  0  0  0  0  0  0  0  0  0
   -2.4652    0.1123   -3.7584 H   0  0  0  0  0  0  0  0  0  0  0  0
   -2.1261   -0.3372    2.4894 C   0  0  0  0  0  0  0  0  0  0  0  0
   -1.0441   -0.1044    2.5160 H   0  0  0  0  0  0  0  0  0  0  0  0
   -2.2567   -1.8683    2.5728 C   0  0  0  0  0  0  0  0  0  0  0  0
   -1.7250   -2.3421    1.7253 H   0  0  0  0  0  0  0  0  0  0  0  0
   -3.3198   -2.1851    2.5419 H   0  0  0  0  0  0  0  0  0  0  0  0
   -1.8194   -2.2463    3.5205 H   0  0  0  0  0  0  0  0  0  0  0  0
   -2.7979    0.3299    3.7002 C   0  0  0  0  0  0  0  0  0  0  0  0
   -2.7363    1.4358    3.6596 H   0  0  0  0  0  0  0  0  0  0  0  0
   -2.3208   -0.0052    4.6444 H   0  0  0  0  0  0  0  0  0  0  0  0
   -3.8729    0.0620    3.7639 H   0  0  0  0  0  0  0  0  0  0  0  0
  1  2  1  0  0  0  0
  2 11  1  1  0  0  0
  2  3  1  0  0  0  0
  3  4  1  0  0  0  0
  5  3  2  0  0  0  0
  5  6  1  0  0  0  0
  7  5  1  0  0  0  0
  8  7  1  0  0  0  0
  9  1  1  0  0  0  0
  9  7  2  0  0  0  0
 10  9  1  0  0  0  0
 11 16  1  0  0  0  0
 12 14  1  0  0  0  0
 12 11  1  0  0  0  0
 13 12  1  0  0  0  0
 15 12  1  0  0  0  0
 16 18  1  0  0  0  0
 16 19  1  0  0  0  0
 16 17  1  0  0  0  0
 20 11  1  0  0  0  0
 21 20  1  0  0  0  0
 21 29  1  0  0  0  0
 22 21  2  0  0  0  0
 23 22  1  0  0  0  0
 23 25  2  0  0  0  0
 24 23  1  0  0  0  0
 25 27  1  0  0  0  0
 26 25  1  0  0  0  0
 27 29  2  0  0  0  0
 27 28  1  0  0  0  0
 29 40  1  0  0  0  0
 30 31  1  0  0  0  0
 30 22  1  0  0  0  0
 32 30  1  0  0  0  0
 32 33  1  0  0  0  0
 34 32  1  0  0  0  0
 35 32  1  0  0  0  0
 36 37  1  0  0  0  0
 36 30  1  0  0  0  0
 38 36  1  0  0  0  0
 39 36  1  0  0  0  0
 40 41  1  0  0  0  0
 40 42  1  0  0  0  0
 40 46  1  0  0  0  0
 42 45  1  0  0  0  0
 43 42  1  0  0  0  0
 44 42  1  0  0  0  0
 46 49  1  0  0  0  0
 46 48  1  0  0  0  0
 47 46  1  0  0  0  0
M  END
