4,5
 OpenBabel05122313053D

 35 37  0  0  0  0  0  0  0  0999 V2000
   -3.7163    1.7166   -0.5924 N   0  0  0  0  0  0  0  0  0  0  0  0
   -0.5040    2.9123    0.2767 N   0  0  0  0  0  2  0  0  0  0  0  0
   -3.9058    3.0880   -0.7420 N   0  0  0  0  0  0  0  0  0  0  0  0
    0.3021    1.9307    0.5589 N   0  0  0  0  0  2  0  0  0  0  0  0
   -1.8206    0.2444   -0.0922 N   0  0  0  0  0  2  0  0  0  0  0  0
   -2.4137    1.4111   -0.2403 C   0  0  0  0  0  0  0  0  0  0  0  0
    2.2579    1.7753    2.0335 C   0  0  0  0  0  0  0  0  0  0  0  0
    1.5945    2.3990    0.9567 C   0  0  0  0  0  0  0  0  0  0  0  0
   -4.7734    0.8293   -0.8919 C   0  0  0  0  0  0  0  0  0  0  0  0
   -2.7633    3.6727   -0.4380 C   0  0  0  0  0  0  0  0  0  0  0  0
   -4.8916   -0.4084   -0.2241 C   0  0  0  0  0  0  0  0  0  0  0  0
   -5.7285    1.1981   -1.8619 C   0  0  0  0  0  0  0  0  0  0  0  0
    2.2233    3.4609    0.2731 C   0  0  0  0  0  0  0  0  0  0  0  0
   -1.7551    2.6877   -0.1069 C   0  0  0  0  0  0  0  0  0  0  0  0
    4.1714    3.2472    1.7198 C   0  0  0  0  0  0  0  0  0  0  0  0
   -2.5941    5.1537   -0.4522 C   0  0  0  0  0  0  0  0  0  0  0  0
   -6.8747   -0.9298   -1.5407 C   0  0  0  0  0  0  0  0  0  0  0  0
   -6.7726    0.3203   -2.1755 C   0  0  0  0  0  0  0  0  0  0  0  0
    3.5400    2.1995    2.4092 C   0  0  0  0  0  0  0  0  0  0  0  0
   -5.9327   -1.2843   -0.5636 C   0  0  0  0  0  0  0  0  0  0  0  0
    3.5048    3.8784    0.6558 C   0  0  0  0  0  0  0  0  0  0  0  0
    1.7561    0.9522    2.5626 H   0  0  0  0  0  0  0  0  0  0  0  0
   -4.2087   -0.6793    0.5932 H   0  0  0  0  0  0  0  0  0  0  0  0
   -5.6324    2.1790   -2.3457 H   0  0  0  0  0  0  0  0  0  0  0  0
    1.6855    3.9428   -0.5552 H   0  0  0  0  0  0  0  0  0  0  0  0
    5.1820    3.5702    2.0101 H   0  0  0  0  0  0  0  0  0  0  0  0
   -2.2815    5.5230    0.5460 H   0  0  0  0  0  0  0  0  0  0  0  0
   -3.5429    5.6425   -0.7398 H   0  0  0  0  0  0  0  0  0  0  0  0
   -1.7993    5.4546   -1.1654 H   0  0  0  0  0  0  0  0  0  0  0  0
   -7.6922   -1.6187   -1.8002 H   0  0  0  0  0  0  0  0  0  0  0  0
   -7.5139    0.6148   -2.9340 H   0  0  0  0  0  0  0  0  0  0  0  0
    4.0496    1.7054    3.2499 H   0  0  0  0  0  0  0  0  0  0  0  0
   -6.0074   -2.2469   -0.0356 H   0  0  0  0  0  0  0  0  0  0  0  0
    3.9922    4.7018    0.1112 H   0  0  0  0  0  0  0  0  0  0  0  0
   -2.4183   -0.5796   -0.2151 H   0  0  0  0  0  0  0  0  0  0  0  0
  1  6  1  0  0  0  0
  2  4  1  0  0  0  0
  3  1  1  0  0  0  0
  3 10  2  0  0  0  0
  4  8  1  0  0  0  0
  6 14  2  0  0  0  0
  6  5  1  0  0  0  0
  7 19  1  0  0  0  0
  7 22  1  0  0  0  0
  8  7  2  0  0  0  0
  9  1  1  0  0  0  0
  9 11  1  0  0  0  0
 10 14  1  0  0  0  0
 11 23  1  0  0  0  0
 12  9  2  0  0  0  0
 13 21  2  0  0  0  0
 13  8  1  0  0  0  0
 14  2  1  0  0  0  0
 15 26  1  0  0  0  0
 15 19  2  0  0  0  0
 16 10  1  0  0  0  0
 16 27  1  0  0  0  0
 17 20  1  0  0  0  0
 18 12  1  0  0  0  0
 18 17  2  0  0  0  0
 19 32  1  0  0  0  0
 20 11  2  0  0  0  0
 20 33  1  0  0  0  0
 21 15  1  0  0  0  0
 24 12  1  0  0  0  0
 25 13  1  0  0  0  0
 28 16  1  0  0  0  0
 29 16  1  0  0  0  0
 30 17  1  0  0  0  0
 31 18  1  0  0  0  0
 34 21  1  0  0  0  0
 35  5  1  0  0  0  0
M  END
