1,2
 OpenBabel05122313053D

 24 26  0  0  0  0  0  0  0  0999 V2000
    1.7941    0.7682   -0.0000 N   0  0  0  0  0  2  0  0  0  0  0  0
   -0.8055    0.2090   -0.0000 N   0  0  0  0  0  2  0  0  0  0  0  0
    3.1341    0.9589    0.0000 C   0  0  0  0  0  0  0  0  0  0  0  0
    3.7157    2.2256    0.0000 C   0  0  0  0  0  0  0  0  0  0  0  0
    2.8711    3.3538    0.0000 C   0  0  0  0  0  0  0  0  0  0  0  0
    1.4915    3.1696    0.0000 C   0  0  0  0  0  0  0  0  0  0  0  0
    0.9559    1.8601   -0.0000 C   0  0  0  0  0  0  0  0  0  0  0  0
   -0.4496    1.5536   -0.0000 C   0  0  0  0  0  0  0  0  0  0  0  0
   -1.5809    2.3836   -0.0000 C   0  0  0  0  0  0  0  0  0  0  0  0
   -2.7073    1.5129   -0.0000 C   0  0  0  0  0  0  0  0  0  0  0  0
   -4.1076    1.7293    0.0000 C   0  0  0  0  0  3  0  0  0  0  0  0
   -4.9593    0.6273    0.0000 C   0  0  0  0  0  0  0  0  0  0  0  0
   -4.4374   -0.6945    0.0001 C   0  0  0  0  0  0  0  0  0  0  0  0
   -3.0634   -0.9414    0.0000 C   0  0  0  0  0  0  0  0  0  0  0  0
   -2.1838    0.1621    0.0000 C   0  0  0  0  0  0  0  0  0  0  0  0
    3.7581    0.0544    0.0000 H   0  0  0  0  0  0  0  0  0  0  0  0
    4.8097    2.3224    0.0001 H   0  0  0  0  0  0  0  0  0  0  0  0
    3.2951    4.3690    0.0000 H   0  0  0  0  0  0  0  0  0  0  0  0
    0.8021    4.0246   -0.0000 H   0  0  0  0  0  0  0  0  0  0  0  0
   -1.5930    3.4796   -0.0000 H   0  0  0  0  0  0  0  0  0  0  0  0
   -4.5092    2.7543   -0.0000 H   0  0  0  0  0  0  0  0  0  0  0  0
   -6.0496    0.7759    0.0000 H   0  0  0  0  0  0  0  0  0  0  0  0
   -5.1341   -1.5466    0.0001 H   0  0  0  0  0  0  0  0  0  0  0  0
   -2.6861   -1.9719    0.0001 H   0  0  0  0  0  0  0  0  0  0  0  0
  1  7  1  0  0  0  0
  1  3  1  0  0  0  0
  2 15  1  0  0  0  0
  3  4  2  0  0  0  0
  4 17  1  0  0  0  0
  5 18  1  0  0  0  0
  5  4  1  0  0  0  0
  6  5  2  0  0  0  0
  7  6  1  0  0  0  0
  8  2  1  0  0  0  0
  8  7  2  0  0  0  0
  9  8  1  0  0  0  0
  9 10  2  0  0  0  0
 10 11  1  0  0  0  0
 10 15  1  0  0  0  0
 11 12  1  0  0  0  0
 12 22  1  0  0  0  0
 12 13  2  0  0  0  0
 13 23  1  0  0  0  0
 14 13  1  0  0  0  0
 14 24  1  0  0  0  0
 15 14  2  0  0  0  0
 16  3  1  0  0  0  0
 19  6  1  0  0  0  0
 20  9  1  0  0  0  0
 21 11  1  0  0  0  0
M  END
