6,7
 OpenBabel05122313053D

 51 56  0  0  1  0  0  0  0  0999 V2000
    3.1574   -3.7589   -1.5052 F   0  0  0  0  0  0  0  0  0  0  0  0
    3.0682   -4.2997    0.7309 F   0  0  0  0  0  0  0  0  0  0  0  0
    6.7848    4.6908   -0.2029 O   0  0  0  0  0  0  0  0  0  0  0  0
    4.9220   -2.9424   -0.0524 N   0  0  0  0  0  0  0  0  0  0  0  0
    2.6208   -2.0029    0.0684 N   0  0  0  0  0  0  0  0  0  0  0  0
   -2.6361   -0.2240    1.4703 N   0  0  0  0  0  0  0  0  0  0  0  0
   -2.2467    1.4308   -0.7427 N   0  0  0  0  0  0  0  0  0  0  0  0
    5.9555   -3.8018    0.0557 C   0  0  0  0  0  0  0  0  0  0  0  0
    5.7757   -4.8837    0.0760 H   0  0  0  0  0  0  0  0  0  0  0  0
    7.1765   -3.0866    0.1448 C   0  0  0  0  0  0  0  0  0  0  0  0
    8.1730   -3.5287    0.2534 H   0  0  0  0  0  0  0  0  0  0  0  0
    6.8505   -1.7277    0.0953 C   0  0  0  0  0  0  0  0  0  0  0  0
    7.5314   -0.8743    0.1783 H   0  0  0  0  0  0  0  0  0  0  0  0
    5.4287   -1.6429   -0.0351 C   0  0  0  0  0  0  0  0  0  0  0  0
    4.5670   -0.5184   -0.0337 C   0  0  1  0  0  3  0  0  0  0  0  0
    3.1620   -0.7165    0.0138 C   0  0  0  0  0  0  0  0  0  0  0  0
    2.0840    0.2146    0.0290 C   0  0  0  0  0  0  0  0  0  0  0  0
    2.1713    1.3046    0.0016 H   0  0  0  0  0  0  0  0  0  0  0  0
    0.8915   -0.5263    0.1337 C   0  0  0  0  0  0  0  0  0  0  0  0
    1.2824   -1.8975    0.1532 C   0  0  0  0  0  0  0  0  0  0  0  0
    0.6441   -2.7886    0.1842 H   0  0  0  0  0  0  0  0  0  0  0  0
   -3.0096   -0.7225    2.6652 C   0  0  0  0  0  3  0  0  0  0  0  0
   -4.0308   -0.5733    3.0359 H   0  0  0  0  0  0  0  0  0  0  0  0
   -1.9186   -1.3786    3.3026 C   0  0  0  0  0  0  0  0  0  0  0  0
   -1.9399   -1.8517    4.2909 H   0  0  0  0  0  0  0  0  0  0  0  0
   -0.8317   -1.2615    2.4389 C   0  0  0  0  0  0  0  0  0  0  0  0
    0.1963   -1.5977    2.6109 H   0  0  0  0  0  0  0  0  0  0  0  0
   -1.2847   -0.5243    1.2904 C   0  0  0  0  0  0  0  0  0  0  0  0
   -0.4970   -0.0406    0.2181 C   0  0  0  0  0  3  0  0  0  0  0  0
   -0.9514    0.9030   -0.7336 C   0  0  0  0  0  3  0  0  0  0  0  0
   -0.1898    1.5624   -1.7594 C   0  0  0  0  0  0  0  0  0  0  0  0
    0.8523    1.3472   -2.0149 H   0  0  0  0  0  0  0  0  0  0  0  0
   -1.0225    2.5231   -2.3287 C   0  0  0  0  0  0  0  0  0  0  0  0
   -0.7757    3.2353   -3.1244 H   0  0  0  0  0  0  0  0  0  0  0  0
   -2.2810    2.4041   -1.6721 C   0  0  0  0  0  0  0  0  0  0  0  0
   -3.1987    2.9807   -1.8394 H   0  0  0  0  0  0  0  0  0  0  0  0
    5.1280    0.8442   -0.0529 C   0  0  0  0  0  0  0  0  0  0  0  0
    6.1321    1.2032   -0.9890 C   0  0  0  0  0  0  0  0  0  0  0  0
    6.4696    0.4597   -1.7255 H   0  0  0  0  0  0  0  0  0  0  0  0
    6.6587    2.4918   -1.0190 C   0  0  0  0  0  0  0  0  0  0  0  0
    7.4191    2.7821   -1.7581 H   0  0  0  0  0  0  0  0  0  0  0  0
    6.2115    3.4684   -0.0990 C   0  0  0  0  0  0  0  0  0  0  0  0
    5.2230    3.1244    0.8489 C   0  0  0  0  0  0  0  0  0  0  0  0
    4.8698    3.8541    1.5891 H   0  0  0  0  0  0  0  0  0  0  0  0
    4.6898    1.8303    0.8591 C   0  0  0  0  0  0  0  0  0  0  0  0
    3.9423    1.5652    1.6205 H   0  0  0  0  0  0  0  0  0  0  0  0
    6.3621    5.7184    0.6790 C   0  0  0  0  0  0  0  0  0  0  0  0
    6.5654    5.4588    1.7416 H   0  0  0  0  0  0  0  0  0  0  0  0
    5.2782    5.9398    0.5636 H   0  0  0  0  0  0  0  0  0  0  0  0
    6.9453    6.6180    0.4102 H   0  0  0  0  0  0  0  0  0  0  0  0
    3.4114   -3.3350   -0.2053 B   0  0  0  0  0  0  0  0  0  0  0  0
  1 51  1  0  0  0  0
  3 42  1  0  0  0  0
  3 47  1  0  0  0  0
  4 14  1  0  0  0  0
  4  8  1  0  0  0  0
  5 20  1  0  0  0  0
  6 22  1  0  0  0  0
  7 30  1  0  0  0  0
  8  9  1  0  0  0  0
  8 10  2  0  0  0  0
 10 11  1  0  0  0  0
 12 10  1  0  0  0  0
 12 13  1  0  0  0  0
 14 15  1  0  0  0  0
 14 12  2  0  0  0  0
 15 37  1  1  0  0  0
 15 16  1  0  0  0  0
 16 17  2  0  0  0  0
 16  5  1  0  0  0  0
 17 19  1  0  0  0  0
 18 17  1  0  0  0  0
 19 20  2  0  0  0  0
 19 29  1  0  0  0  0
 20 21  1  0  0  0  0
 22 23  1  0  0  0  0
 22 24  1  0  0  0  0
 24 25  1  0  0  0  0
 26 27  1  0  0  0  0
 26 24  2  0  0  0  0
 28  6  2  0  0  0  0
 28 26  1  0  0  0  0
 29 28  1  0  0  0  0
 30 29  1  0  0  0  0
 31 30  1  0  0  0  0
 32 31  1  0  0  0  0
 33 31  2  0  0  0  0
 33 35  1  0  0  0  0
 34 33  1  0  0  0  0
 35  7  2  0  0  0  0
 36 35  1  0  0  0  0
 37 45  1  0  0  0  0
 38 37  2  0  0  0  0
 39 38  1  0  0  0  0
 40 38  1  0  0  0  0
 40 42  2  0  0  0  0
 41 40  1  0  0  0  0
 42 43  1  0  0  0  0
 43 45  2  0  0  0  0
 43 44  1  0  0  0  0
 45 46  1  0  0  0  0
 47 48  1  0  0  0  0
 49 47  1  0  0  0  0
 50 47  1  0  0  0  0
 51  4  1  0  0  0  0
 51  5  1  0  0  0  0
 51  2  1  0  0  0  0
M  END
