1,2
 OpenBabel05122313053D

 48 49  0  0  0  0  0  0  0  0999 V2000
   -0.2410   -0.0004    0.3782 N   0  0  0  0  0  2  0  0  0  0  0  0
    2.2083   -0.0002    0.2126 N   0  0  0  0  0  2  0  0  0  0  0  0
   -1.6536   -0.0000    0.1569 C   0  0  0  0  0  0  0  0  0  0  0  0
   -2.3376   -1.2441    0.0470 C   0  0  0  0  0  0  0  0  0  0  0  0
   -3.7213   -1.2109   -0.2028 C   0  0  0  0  0  0  0  0  0  0  0  0
   -4.2703   -2.1603   -0.2926 H   0  0  0  0  0  0  0  0  0  0  0  0
   -4.4094    0.0010   -0.3324 C   0  0  0  0  0  0  0  0  0  0  0  0
   -5.4920    0.0014   -0.5308 H   0  0  0  0  0  0  0  0  0  0  0  0
   -3.7208    1.2123   -0.2011 C   0  0  0  0  0  0  0  0  0  0  0  0
   -4.2693    2.1621   -0.2895 H   0  0  0  0  0  0  0  0  0  0  0  0
   -2.3370    1.2445    0.0488 C   0  0  0  0  0  0  0  0  0  0  0  0
   -1.6346    2.5808    0.2504 C   0  0  0  0  0  0  0  0  0  0  0  0
   -0.5439    2.3905    0.2558 H   0  0  0  0  0  0  0  0  0  0  0  0
   -1.9118    3.5593   -0.9015 C   0  0  0  0  0  0  0  0  0  0  0  0
   -2.9814    3.8519   -0.9474 H   0  0  0  0  0  0  0  0  0  0  0  0
   -1.6215    3.1159   -1.8728 H   0  0  0  0  0  0  0  0  0  0  0  0
   -1.3184    4.4857   -0.7650 H   0  0  0  0  0  0  0  0  0  0  0  0
   -2.0217    3.1991    1.6067 C   0  0  0  0  0  0  0  0  0  0  0  0
   -1.4692    4.1465    1.7729 H   0  0  0  0  0  0  0  0  0  0  0  0
   -1.7946    2.5190    2.4512 H   0  0  0  0  0  0  0  0  0  0  0  0
   -3.1069    3.4295    1.6478 H   0  0  0  0  0  0  0  0  0  0  0  0
   -1.6358   -2.5811    0.2463 C   0  0  0  0  0  0  0  0  0  0  0  0
   -0.5451   -2.3913    0.2527 H   0  0  0  0  0  0  0  0  0  0  0  0
   -2.0241   -3.2021    1.6011 C   0  0  0  0  0  0  0  0  0  0  0  0
   -1.7973   -2.5238    2.4472 H   0  0  0  0  0  0  0  0  0  0  0  0
   -1.4720   -4.1500    1.7657 H   0  0  0  0  0  0  0  0  0  0  0  0
   -3.1093   -3.4323    1.6410 H   0  0  0  0  0  0  0  0  0  0  0  0
   -1.9129   -3.5570   -0.9077 C   0  0  0  0  0  0  0  0  0  0  0  0
   -1.3201   -4.4841   -0.7728 H   0  0  0  0  0  0  0  0  0  0  0  0
   -1.6217   -3.1118   -1.8780 H   0  0  0  0  0  0  0  0  0  0  0  0
   -2.9826   -3.8489   -0.9550 H   0  0  0  0  0  0  0  0  0  0  0  0
   -0.4464   -0.0034    2.8837 C   0  0  0  0  0  0  0  0  0  0  0  0
   -1.5354   -0.0028    2.6964 H   0  0  0  0  0  0  0  0  0  0  0  0
   -0.1999    0.8889    3.4972 H   0  0  0  0  0  0  0  0  0  0  0  0
   -0.2005   -0.8972    3.4950 H   0  0  0  0  0  0  0  0  0  0  0  0
    0.3188   -0.0020    1.5985 C   0  0  0  0  0  0  0  0  0  0  0  0
    1.7512   -0.0020    1.5230 C   0  0  0  0  0  0  0  0  0  0  0  0
    2.6562   -0.0035    2.6038 C   0  0  0  0  0  0  0  0  0  0  0  0
    2.2672   -0.0048    3.6315 H   0  0  0  0  0  0  0  0  0  0  0  0
    4.0250   -0.0034    2.3428 C   0  0  0  0  0  0  0  0  0  0  0  0
    4.7523   -0.0046    3.1673 H   0  0  0  0  0  0  0  0  0  0  0  0
    4.4660   -0.0019    1.0036 C   0  0  0  0  0  0  0  0  0  0  0  0
    5.5389   -0.0019    0.7650 H   0  0  0  0  0  0  0  0  0  0  0  0
    3.5485   -0.0004   -0.0547 C   0  0  0  0  0  0  0  0  0  0  0  0
    3.9630    0.0011   -1.4934 C   0  0  0  0  0  0  0  0  0  0  0  0
    3.5470   -0.8897   -2.0086 H   0  0  0  0  0  0  0  0  0  0  0  0
    5.0639    0.0013   -1.5911 H   0  0  0  0  0  0  0  0  0  0  0  0
    3.5469    0.8929   -2.0069 H   0  0  0  0  0  0  0  0  0  0  0  0
  1 36  1  0  0  0  0
  2 37  1  0  0  0  0
  3  1  1  0  0  0  0
  4  3  2  0  0  0  0
  4 22  1  0  0  0  0
  5  4  1  0  0  0  0
  6  5  1  0  0  0  0
  7  5  2  0  0  0  0
  7  9  1  0  0  0  0
  8  7  1  0  0  0  0
  9 11  2  0  0  0  0
 10  9  1  0  0  0  0
 11  3  1  0  0  0  0
 11 12  1  0  0  0  0
 12 13  1  0  0  0  0
 12 18  1  0  0  0  0
 14 17  1  0  0  0  0
 14 12  1  0  0  0  0
 15 14  1  0  0  0  0
 16 14  1  0  0  0  0
 18 21  1  0  0  0  0
 18 19  1  0  0  0  0
 18 20  1  0  0  0  0
 22 23  1  0  0  0  0
 22 24  1  0  0  0  0
 24 27  1  0  0  0  0
 24 26  1  0  0  0  0
 24 25  1  0  0  0  0
 28 29  1  0  0  0  0
 28 22  1  0  0  0  0
 30 28  1  0  0  0  0
 31 28  1  0  0  0  0
 32 35  1  0  0  0  0
 32 34  1  0  0  0  0
 33 32  1  0  0  0  0
 36 32  1  0  0  0  0
 37 36  2  0  0  0  0
 37 38  1  0  0  0  0
 38 39  1  0  0  0  0
 40 38  2  0  0  0  0
 40 41  1  0  0  0  0
 42 40  1  0  0  0  0
 43 42  1  0  0  0  0
 44  2  1  0  0  0  0
 44 42  2  0  0  0  0
 45 44  1  0  0  0  0
 46 45  1  0  0  0  0
 47 45  1  0  0  0  0
 48 45  1  0  0  0  0
M  END
