1,2
 OpenBabel05122313053D

 37 38  0  0  0  0  0  0  0  0999 V2000
    0.7347    1.4066   -0.0393 N   0  0  0  0  0  2  0  0  0  0  0  0
   -1.7018    1.5315   -0.0835 N   0  0  0  0  0  2  0  0  0  0  0  0
    0.2050    2.6334   -0.0277 C   0  0  0  0  0  0  0  0  0  0  0  0
   -1.1517    2.7245   -0.0651 N   0  0  0  0  0  0  0  0  0  0  0  0
    2.2117    3.8950   -0.2286 O   0  0  0  0  0  0  0  0  0  0  0  0
    0.9937    3.9108   -0.0984 C   0  0  0  0  0  0  0  0  0  0  0  0
    2.1261    1.1498   -0.0659 C   0  0  0  0  0  0  0  0  0  0  0  0
   -3.1139    1.5651   -0.2815 C   0  0  0  0  0  0  0  0  0  0  0  0
    2.6969    0.6312   -1.2449 C   0  0  0  0  0  0  0  0  0  0  0  0
    2.0562    0.5046   -2.1291 H   0  0  0  0  0  0  0  0  0  0  0  0
    4.0436    0.2540   -1.2496 C   0  0  0  0  0  0  0  0  0  0  0  0
    4.4776   -0.1444   -2.1782 H   0  0  0  0  0  0  0  0  0  0  0  0
    4.8298    0.3596   -0.0812 C   0  0  0  0  0  0  0  0  0  0  0  0
    0.1935    5.1920   -0.0113 C   0  0  0  0  0  0  0  0  0  0  0  0
    0.8837    6.0521   -0.0704 H   0  0  0  0  0  0  0  0  0  0  0  0
   -0.3846    5.2229    0.9345 H   0  0  0  0  0  0  0  0  0  0  0  0
   -0.5567    5.2338   -0.8257 H   0  0  0  0  0  0  0  0  0  0  0  0
   -3.6847    0.7383   -1.2686 C   0  0  0  0  0  0  0  0  0  0  0  0
   -3.0180    0.1032   -1.8735 H   0  0  0  0  0  0  0  0  0  0  0  0
   -5.3058    2.4086    0.3189 C   0  0  0  0  0  0  0  0  0  0  0  0
   -5.9409    3.0542    0.9443 H   0  0  0  0  0  0  0  0  0  0  0  0
   -3.9172    2.4137    0.5049 C   0  0  0  0  0  0  0  0  0  0  0  0
   -3.4366    3.0513    1.2595 H   0  0  0  0  0  0  0  0  0  0  0  0
    2.8964    1.2604    1.1133 C   0  0  0  0  0  0  0  0  0  0  0  0
    2.4158    1.6302    2.0296 H   0  0  0  0  0  0  0  0  0  0  0  0
    4.2334    0.8657    1.0974 C   0  0  0  0  0  0  0  0  0  0  0  0
    4.8610    0.9302    1.9988 H   0  0  0  0  0  0  0  0  0  0  0  0
   -5.8868    1.5867   -0.6631 C   0  0  0  0  0  0  0  0  0  0  0  0
   -6.9776    1.5918   -0.8090 H   0  0  0  0  0  0  0  0  0  0  0  0
    6.8979    0.0059    1.0337 O   0  0  0  0  0  0  0  0  0  0  0  0
    6.2699   -0.0554   -0.0194 C   0  0  0  0  0  0  0  0  0  0  0  0
   -5.0730    0.7640   -1.4596 C   0  0  0  0  0  0  0  0  0  0  0  0
   -5.5228    0.1306   -2.2392 H   0  0  0  0  0  0  0  0  0  0  0  0
    6.9321   -0.5548   -1.2940 C   0  0  0  0  0  0  0  0  0  0  0  0
    7.9848   -0.8051   -1.0732 H   0  0  0  0  0  0  0  0  0  0  0  0
    6.8935    0.2156   -2.0913 H   0  0  0  0  0  0  0  0  0  0  0  0
    6.4145   -1.4535   -1.6888 H   0  0  0  0  0  0  0  0  0  0  0  0
  1  3  1  0  0  0  0
  2  4  1  0  0  0  0
  4  3  2  0  0  0  0
  5  6  2  0  0  0  0
  6  3  1  0  0  0  0
  6 14  1  0  0  0  0
  7  1  1  0  0  0  0
  7 24  1  0  0  0  0
  8  2  1  0  0  0  0
  8 22  1  0  0  0  0
  9  7  2  0  0  0  0
 10  9  1  0  0  0  0
 11  9  1  0  0  0  0
 11 13  2  0  0  0  0
 12 11  1  0  0  0  0
 13 31  1  0  0  0  0
 13 26  1  0  0  0  0
 14 16  1  0  0  0  0
 15 14  1  0  0  0  0
 17 14  1  0  0  0  0
 18  8  2  0  0  0  0
 19 18  1  0  0  0  0
 20 22  2  0  0  0  0
 20 21  1  0  0  0  0
 22 23  1  0  0  0  0
 24 25  1  0  0  0  0
 26 24  2  0  0  0  0
 26 27  1  0  0  0  0
 28 20  1  0  0  0  0
 29 28  1  0  0  0  0
 31 30  2  0  0  0  0
 32 18  1  0  0  0  0
 32 28  2  0  0  0  0
 33 32  1  0  0  0  0
 34 35  1  0  0  0  0
 34 31  1  0  0  0  0
 36 34  1  0  0  0  0
 37 34  1  0  0  0  0
M  END
