6,24
 OpenBabel05122313053D

 24 25  0  0  0  0  0  0  0  0999 V2000
   -2.1301    2.3854    1.9124 Cl  0  0  0  0  0  0  0  0  0  0  0  0
   -2.0778   -0.7397   -2.5654 Cl  0  0  0  0  0  0  0  0  0  0  0  0
    1.6116    3.7144   -0.9501 C   0  0  0  0  0  0  0  0  0  0  0  0
    1.0013    4.5393   -1.3442 H   0  0  0  0  0  0  0  0  0  0  0  0
   -2.9231   -0.0405   -1.2267 C   0  0  0  0  0  0  0  0  0  0  0  0
    1.7083    1.4332   -0.1258 N   0  0  0  0  0  2  0  0  0  0  0  0
    3.7196    2.7361   -0.3081 C   0  0  0  0  0  0  0  0  0  0  0  0
    4.8091    2.7850   -0.1732 H   0  0  0  0  0  0  0  0  0  0  0  0
   -4.3083    1.0822    0.9468 C   0  0  0  0  0  0  0  0  0  0  0  0
   -4.8344    1.5282    1.8017 H   0  0  0  0  0  0  0  0  0  0  0  0
    2.9937    3.8395   -0.7884 C   0  0  0  0  0  0  0  0  0  0  0  0
    3.5045    4.7793   -1.0427 H   0  0  0  0  0  0  0  0  0  0  0  0
    0.9919    2.4970   -0.6132 C   0  0  0  0  0  0  0  0  0  0  0  0
   -2.9441    1.3510    0.7662 C   0  0  0  0  0  0  0  0  0  0  0  0
   -0.4207    2.2403   -0.7265 C   0  0  0  0  0  0  0  0  0  0  0  0
   -1.1321    3.0350   -1.0040 H   0  0  0  0  0  0  0  0  0  0  0  0
    3.0461    1.5486   -0.0038 C   0  0  0  0  0  0  0  0  0  0  0  0
    3.5834    0.6560    0.3414 H   0  0  0  0  0  0  0  0  0  0  0  0
   -4.9758    0.2589    0.0291 C   0  0  0  0  0  0  0  0  0  0  0  0
   -6.0480    0.0540    0.1627 H   0  0  0  0  0  0  0  0  0  0  0  0
   -4.2927   -0.2963   -1.0600 C   0  0  0  0  0  0  0  0  0  0  0  0
   -4.8073   -0.9329   -1.7925 H   0  0  0  0  0  0  0  0  0  0  0  0
   -2.2231    0.7887   -0.3189 C   0  0  0  0  0  0  0  0  0  0  0  0
   -0.8262    1.0254   -0.4420 N   0  0  0  0  0  2  0  0  0  0  0  0
  2  5  1  0  0  0  0
  3 11  2  0  0  0  0
  3 13  1  0  0  0  0
  4  3  1  0  0  0  0
  5 21  2  0  0  0  0
  5 23  1  0  0  0  0
  6 17  1  0  0  0  0
  7  8  1  0  0  0  0
  7 17  2  0  0  0  0
  9 10  1  0  0  0  0
 11  7  1  0  0  0  0
 12 11  1  0  0  0  0
 13  6  1  0  0  0  0
 14  9  1  0  0  0  0
 14  1  1  0  0  0  0
 15 13  2  0  0  0  0
 15 24  1  0  0  0  0
 16 15  1  0  0  0  0
 17 18  1  0  0  0  0
 19 20  1  0  0  0  0
 19  9  2  0  0  0  0
 21 19  1  0  0  0  0
 22 21  1  0  0  0  0
 23 14  2  0  0  0  0
 24 23  1  0  0  0  0
M  END
