6,25
 OpenBabel05122313053D

 46 47  0  0  1  0  0  0  0  0999 V2000
    0.7404    1.2954    1.2472 N   0  0  0  0  0  0  0  0  0  0  0  0
    0.6423    0.4181    2.4151 C   0  0  0  0  0  0  0  0  0  0  0  0
   -0.0865    2.5004    1.3383 C   0  0  0  0  0  0  0  0  0  0  0  0
    2.0990    1.6448    0.8824 C   0  0  0  0  0  0  0  0  0  0  0  0
    2.8625    0.4547    0.4925 N   0  0  0  0  0  0  0  0  0  0  0  0
    2.3082   -0.4673   -0.2733 N   0  0  0  0  0  2  0  0  0  0  0  0
    3.2656   -1.4519   -0.4720 C   0  0  1  0  0  3  0  0  0  0  0  0
    4.4632   -1.0373    0.2105 C   0  0  0  0  0  0  0  0  0  0  0  0
    4.1919    0.1793    0.8108 C   0  0  0  0  0  0  0  0  0  0  0  0
    3.0619   -2.6807   -1.1608 C   0  0  0  0  0  2  0  0  0  0  0  0
    5.0371    1.0891    1.6389 C   0  0  0  0  0  0  0  0  0  0  0  0
    2.6692    2.1439    1.7014 H   0  0  0  0  0  0  0  0  0  0  0  0
    2.0367    2.3128   -0.0084 H   0  0  0  0  0  0  0  0  0  0  0  0
    5.3989   -1.6047    0.2381 H   0  0  0  0  0  0  0  0  0  0  0  0
    6.0423    0.6454    1.7581 H   0  0  0  0  0  0  0  0  0  0  0  0
    4.6165    1.2476    2.6539 H   0  0  0  0  0  0  0  0  0  0  0  0
    5.1614    2.0861    1.1679 H   0  0  0  0  0  0  0  0  0  0  0  0
    0.6919    0.9986    3.3698 H   0  0  0  0  0  0  0  0  0  0  0  0
    1.5167   -0.2633    2.4170 H   0  0  0  0  0  0  0  0  0  0  0  0
   -1.1373    2.2227    1.5382 H   0  0  0  0  0  0  0  0  0  0  0  0
    0.2576    3.1880    2.1494 H   0  0  0  0  0  0  0  0  0  0  0  0
   -0.0600    3.0218    0.3610 H   0  0  0  0  0  0  0  0  0  0  0  0
    2.0370   -2.6228   -1.6181 H   0  0  0  0  0  0  0  0  0  0  0  0
   -0.7404   -1.2956    1.2470 N   0  0  0  0  0  0  0  0  0  0  0  0
   -2.3082    0.4674   -0.2732 N   0  0  0  0  0  2  0  0  0  0  0  0
   -0.6422   -0.4185    2.4150 C   0  0  0  0  0  0  0  0  0  0  0  0
    0.0865   -2.5006    1.3379 C   0  0  0  0  0  0  0  0  0  0  0  0
   -2.0990   -1.6449    0.8822 C   0  0  0  0  0  0  0  0  0  0  0  0
   -2.8625   -0.4547    0.4925 N   0  0  0  0  0  0  0  0  0  0  0  0
   -3.2656    1.4519   -0.4718 C   0  0  1  0  0  3  0  0  0  0  0  0
   -0.6918   -0.9991    3.3696 H   0  0  0  0  0  0  0  0  0  0  0  0
   -1.5166    0.2629    2.4171 H   0  0  0  0  0  0  0  0  0  0  0  0
    1.1373   -2.2230    1.5379 H   0  0  0  0  0  0  0  0  0  0  0  0
   -0.2577   -3.1883    2.1489 H   0  0  0  0  0  0  0  0  0  0  0  0
    0.0600   -3.0219    0.3606 H   0  0  0  0  0  0  0  0  0  0  0  0
   -2.6692   -2.1442    1.7012 H   0  0  0  0  0  0  0  0  0  0  0  0
   -2.0368   -2.3127   -0.0087 H   0  0  0  0  0  0  0  0  0  0  0  0
   -4.1919   -0.1794    0.8108 C   0  0  0  0  0  0  0  0  0  0  0  0
   -4.4632    1.0373    0.2106 C   0  0  0  0  0  0  0  0  0  0  0  0
   -3.0620    2.6808   -1.1606 C   0  0  0  0  0  2  0  0  0  0  0  0
   -5.0371   -1.0894    1.6388 C   0  0  0  0  0  0  0  0  0  0  0  0
   -5.3990    1.6046    0.2383 H   0  0  0  0  0  0  0  0  0  0  0  0
   -2.0370    2.6230   -1.6177 H   0  0  0  0  0  0  0  0  0  0  0  0
   -6.0423   -0.6456    1.7581 H   0  0  0  0  0  0  0  0  0  0  0  0
   -4.6165   -1.2479    2.6538 H   0  0  0  0  0  0  0  0  0  0  0  0
   -5.1613   -2.0863    1.1677 H   0  0  0  0  0  0  0  0  0  0  0  0
  1  3  1  0  0  0  0
  1  2  1  0  0  0  0
  2 19  1  0  0  0  0
  2 18  1  0  0  0  0
  3 20  1  0  0  0  0
  3 21  1  0  0  0  0
  4  1  1  0  0  0  0
  4 12  1  0  0  0  0
  5  9  1  0  0  0  0
  5  4  1  0  0  0  0
  6  5  1  0  0  0  0
  7 10  1  1  0  0  0
  7  6  1  0  0  0  0
  7  8  1  0  0  0  0
  8 14  1  0  0  0  0
  8  9  2  0  0  0  0
  9 11  1  0  0  0  0
 11 15  1  0  0  0  0
 11 16  1  0  0  0  0
 13  4  1  0  0  0  0
 17 11  1  0  0  0  0
 22  3  1  0  0  0  0
 23 10  1  0  0  0  0
 24 27  1  0  0  0  0
 24 26  1  0  0  0  0
 25 29  1  0  0  0  0
 26  2  1  0  0  0  0
 26 32  1  0  0  0  0
 26 31  1  0  0  0  0
 27 33  1  0  0  0  0
 27 34  1  0  0  0  0
 28 24  1  0  0  0  0
 28 36  1  0  0  0  0
 29 38  1  0  0  0  0
 29 28  1  0  0  0  0
 30 40  1  1  0  0  0
 30 25  1  0  0  0  0
 30 39  1  0  0  0  0
 35 27  1  0  0  0  0
 37 28  1  0  0  0  0
 38 41  1  0  0  0  0
 39 42  1  0  0  0  0
 39 38  2  0  0  0  0
 41 44  1  0  0  0  0
 41 45  1  0  0  0  0
 43 40  1  0  0  0  0
 46 41  1  0  0  0  0
M  END
