3,4
 OpenBabel05122313053D

 30 30  0  0  0  0  0  0  0  0999 V2000
    1.4857    0.6751   -1.2650 H   0  0  0  0  0  0  0  0  0  0  0  0
    1.0441   -0.2060   -1.3000 O   0  0  0  0  0  0  0  0  0  0  0  0
   -0.7807   -2.1107    0.0348 N   0  0  0  0  0  2  0  0  0  0  0  0
   -2.4900   -0.5783    1.9471 N   0  0  0  0  0  0  0  0  0  0  0  0
    1.9848   -1.1735   -1.1045 C   0  0  0  0  0  0  0  0  0  0  0  0
    3.3428   -0.8935   -1.3255 C   0  0  0  0  0  0  0  0  0  0  0  0
    3.6407    0.1321   -1.5956 H   0  0  0  0  0  0  0  0  0  0  0  0
    4.3029   -1.9051   -1.2090 C   0  0  0  0  0  0  0  0  0  0  0  0
    5.3614   -1.6673   -1.3908 H   0  0  0  0  0  0  0  0  0  0  0  0
    3.9182   -3.2154   -0.8729 C   0  0  0  0  0  0  0  0  0  0  0  0
    4.6679   -4.0152   -0.7976 H   0  0  0  0  0  0  0  0  0  0  0  0
    2.5749   -3.4827   -0.6135 C   0  0  0  0  0  0  0  0  0  0  0  0
    2.2681   -4.4957   -0.3095 H   0  0  0  0  0  0  0  0  0  0  0  0
    1.5758   -2.4734   -0.6896 C   0  0  0  0  0  0  0  0  0  0  0  0
    0.2580   -2.8515   -0.2007 C   0  0  0  0  0  3  0  0  0  0  0  0
    0.1870   -3.9322    0.0626 H   0  0  0  0  0  0  0  0  0  0  0  0
   -1.9035   -2.7110    0.7434 C   0  0  0  0  0  0  0  0  0  0  0  0
   -1.7455   -3.7974    0.9279 H   0  0  0  0  0  0  0  0  0  0  0  0
   -2.8224   -2.6163    0.1230 H   0  0  0  0  0  0  0  0  0  0  0  0
   -2.0989   -2.0018    2.0914 C   0  0  0  0  0  0  0  0  0  0  0  0
   -2.8536   -2.5503    2.7018 H   0  0  0  0  0  0  0  0  0  0  0  0
   -1.1387   -2.0340    2.6436 H   0  0  0  0  0  0  0  0  0  0  0  0
   -3.9356   -0.4581    1.6917 C   0  0  0  0  0  0  0  0  0  0  0  0
   -4.2282   -1.0672    0.8161 H   0  0  0  0  0  0  0  0  0  0  0  0
   -4.1985    0.5968    1.4869 H   0  0  0  0  0  0  0  0  0  0  0  0
   -4.5281   -0.8047    2.5697 H   0  0  0  0  0  0  0  0  0  0  0  0
   -2.1236    0.1894    3.1584 C   0  0  0  0  0  0  0  0  0  0  0  0
   -2.6124   -0.2359    4.0644 H   0  0  0  0  0  0  0  0  0  0  0  0
   -2.4572    1.2382    3.0409 H   0  0  0  0  0  0  0  0  0  0  0  0
   -1.0240    0.1887    3.2785 H   0  0  0  0  0  0  0  0  0  0  0  0
  2  1  1  0  0  0  0
  2  5  1  0  0  0  0
  3 17  1  0  0  0  0
  4 20  1  0  0  0  0
  4 27  1  0  0  0  0
  5 14  1  0  0  0  0
  6  8  1  0  0  0  0
  6  5  2  0  0  0  0
  7  6  1  0  0  0  0
  8 10  2  0  0  0  0
  9  8  1  0  0  0  0
 10 11  1  0  0  0  0
 10 12  1  0  0  0  0
 12 13  1  0  0  0  0
 14 12  2  0  0  0  0
 14 15  1  0  0  0  0
 15  3  1  0  0  0  0
 15 16  1  0  0  0  0
 17 18  1  0  0  0  0
 17 20  1  0  0  0  0
 19 17  1  0  0  0  0
 20 22  1  0  0  0  0
 20 21  1  0  0  0  0
 23  4  1  0  0  0  0
 23 26  1  0  0  0  0
 24 23  1  0  0  0  0
 25 23  1  0  0  0  0
 27 30  1  0  0  0  0
 27 28  1  0  0  0  0
 29 27  1  0  0  0  0
M  END
