1,2
 OpenBabel05122313053D

 44 45  0  0  0  0  0  0  0  0999 V2000
    1.8486   -0.3199   -0.0239 N   0  0  0  0  0  2  0  0  0  0  0  0
   -0.5306   -1.4031   -0.0178 N   0  0  0  0  0  2  0  0  0  0  0  0
    3.8515    4.3183   -0.1013 O   0  0  0  0  0  0  0  0  0  0  0  0
    1.5970    4.6551   -0.1553 O   0  0  0  0  0  0  0  0  0  0  0  0
   -4.2185    2.0407   -0.1121 O   0  0  0  0  0  0  0  0  0  0  0  0
   -5.3052    0.0369   -0.0973 O   0  0  0  0  0  0  0  0  0  0  0  0
    3.1279    0.1322   -0.0238 C   0  0  0  0  0  0  0  0  0  0  0  0
    3.8917   -0.6630    0.0002 H   0  0  0  0  0  0  0  0  0  0  0  0
    3.4232    1.4927   -0.0518 C   0  0  0  0  0  0  0  0  0  0  0  0
    4.4644    1.8442   -0.0509 H   0  0  0  0  0  0  0  0  0  0  0  0
    2.3730    2.4314   -0.0822 C   0  0  0  0  0  0  0  0  0  0  0  0
    1.0521    1.9596   -0.0818 C   0  0  0  0  0  0  0  0  0  0  0  0
    0.2204    2.6749   -0.1041 H   0  0  0  0  0  0  0  0  0  0  0  0
    0.8088    0.5800   -0.0522 C   0  0  0  0  0  0  0  0  0  0  0  0
   -0.5258   -0.0271   -0.0485 C   0  0  0  0  0  0  0  0  0  0  0  0
   -1.7268    0.6914   -0.0730 C   0  0  0  0  0  0  0  0  0  0  0  0
   -1.7405    1.7897   -0.0972 H   0  0  0  0  0  0  0  0  0  0  0  0
   -2.9506    0.0070   -0.0672 C   0  0  0  0  0  0  0  0  0  0  0  0
   -2.9339   -1.4020   -0.0357 C   0  0  0  0  0  0  0  0  0  0  0  0
   -3.8729   -1.9706   -0.0294 H   0  0  0  0  0  0  0  0  0  0  0  0
   -1.7113   -2.0704   -0.0115 C   0  0  0  0  0  0  0  0  0  0  0  0
   -1.6121   -3.1687    0.0139 H   0  0  0  0  0  0  0  0  0  0  0  0
    2.7094    3.8914   -0.1124 C   0  0  0  0  0  0  0  0  0  0  0  0
    1.7844    6.1056   -0.1814 C   0  0  0  0  0  0  0  0  0  0  0  0
    2.7127    6.2975   -0.7591 H   0  0  0  0  0  0  0  0  0  0  0  0
    0.5706    6.6760   -0.8963 C   0  0  0  0  0  0  0  0  0  0  0  0
    0.4759    6.2536   -1.9156 H   0  0  0  0  0  0  0  0  0  0  0  0
    0.6652    7.7761   -0.9838 H   0  0  0  0  0  0  0  0  0  0  0  0
   -0.3598    6.4526   -0.3357 H   0  0  0  0  0  0  0  0  0  0  0  0
    1.9637    6.6136    1.2439 C   0  0  0  0  0  0  0  0  0  0  0  0
    2.8651    6.1693    1.7077 H   0  0  0  0  0  0  0  0  0  0  0  0
    1.0777    6.3662    1.8630 H   0  0  0  0  0  0  0  0  0  0  0  0
    2.0888    7.7147    1.2404 H   0  0  0  0  0  0  0  0  0  0  0  0
   -4.2090    0.8198   -0.0939 C   0  0  0  0  0  0  0  0  0  0  0  0
   -6.6054    0.7076   -0.1160 C   0  0  0  0  0  0  0  0  0  0  0  0
   -6.4813    1.6291   -0.7224 H   0  0  0  0  0  0  0  0  0  0  0  0
   -7.5693   -0.2585   -0.7846 C   0  0  0  0  0  0  0  0  0  0  0  0
   -7.2250   -0.5205   -1.8039 H   0  0  0  0  0  0  0  0  0  0  0  0
   -8.5730    0.2030   -0.8647 H   0  0  0  0  0  0  0  0  0  0  0  0
   -7.6641   -1.1930   -0.1953 H   0  0  0  0  0  0  0  0  0  0  0  0
   -6.9928    1.0888    1.3076 C   0  0  0  0  0  0  0  0  0  0  0  0
   -6.2591    1.7975    1.7369 H   0  0  0  0  0  0  0  0  0  0  0  0
   -7.0486    0.1890    1.9530 H   0  0  0  0  0  0  0  0  0  0  0  0
   -7.9858    1.5809    1.3105 H   0  0  0  0  0  0  0  0  0  0  0  0
  1  7  1  0  0  0  0
  2 21  1  0  0  0  0
  4 23  1  0  0  0  0
  5 34  2  0  0  0  0
  6 34  1  0  0  0  0
  7  8  1  0  0  0  0
  9 10  1  0  0  0  0
  9  7  2  0  0  0  0
 11 12  2  0  0  0  0
 11  9  1  0  0  0  0
 12 14  1  0  0  0  0
 13 12  1  0  0  0  0
 14 15  2  0  0  0  0
 14  1  1  0  0  0  0
 15  2  1  0  0  0  0
 16 18  2  0  0  0  0
 16 15  1  0  0  0  0
 17 16  1  0  0  0  0
 18 19  1  0  0  0  0
 19 20  1  0  0  0  0
 19 21  2  0  0  0  0
 21 22  1  0  0  0  0
 23  3  2  0  0  0  0
 23 11  1  0  0  0  0
 24  4  1  0  0  0  0
 24 30  1  0  0  0  0
 25 24  1  0  0  0  0
 26 29  1  0  0  0  0
 26 24  1  0  0  0  0
 27 26  1  0  0  0  0
 28 26  1  0  0  0  0
 30 31  1  0  0  0  0
 30 32  1  0  0  0  0
 33 30  1  0  0  0  0
 34 18  1  0  0  0  0
 35  6  1  0  0  0  0
 35 41  1  0  0  0  0
 36 35  1  0  0  0  0
 37 40  1  0  0  0  0
 37 35  1  0  0  0  0
 38 37  1  0  0  0  0
 39 37  1  0  0  0  0
 41 44  1  0  0  0  0
 41 42  1  0  0  0  0
 41 43  1  0  0  0  0
M  END
