2,4
 OpenBabel05122313053D

 48 51  0  0  1  0  0  0  0  0999 V2000
    1.1518   -2.5012   -0.9054 O   0  0  0  0  0  0  0  0  0  0  0  0
   -1.0747    1.8618    0.1123 N   0  0  0  0  0  2  0  0  0  0  0  0
    0.0454   -0.3813   -0.9825 N   0  0  0  0  0  0  0  0  0  0  0  0
   -1.7175   -1.2690    0.9827 N   0  0  0  0  0  2  0  0  0  0  0  0
    2.1898    0.4957   -0.8004 N   0  0  0  0  0  0  0  0  0  0  0  0
   -1.6800    3.0418    0.3632 C   0  0  0  0  0  3  0  0  0  0  0  0
   -2.7839    2.9989    0.3765 H   0  0  0  0  0  0  0  0  0  0  0  0
   -0.9538    4.2095    0.6219 C   0  0  0  0  0  0  0  0  0  0  0  0
   -1.4854    5.1512    0.8196 H   0  0  0  0  0  0  0  0  0  0  0  0
    0.4469    4.1455    0.6156 C   0  0  0  0  0  0  0  0  0  0  0  0
    1.0520    5.0450    0.8054 H   0  0  0  0  0  0  0  0  0  0  0  0
    1.0704    2.9169    0.3611 C   0  0  0  0  0  0  0  0  0  0  0  0
    2.1648    2.8226    0.3399 H   0  0  0  0  0  0  0  0  0  0  0  0
    0.2721    1.7867    0.1211 C   0  0  0  0  0  0  0  0  0  0  0  0
    0.9005    0.4043   -0.1116 C   0  0  1  0  0  0  0  0  0  0  0  0
    1.0157   -0.1034    0.8714 H   0  0  0  0  0  0  0  0  0  0  0  0
   -0.0716   -1.7972   -0.7253 C   0  0  2  0  0  0  0  0  0  0  0  0
   -0.8436   -2.1499   -1.4557 H   0  0  0  0  0  0  0  0  0  0  0  0
   -0.6298   -2.0073    0.6773 C   0  0  2  0  0  3  0  0  0  0  0  0
   -0.0672   -2.9027    1.5963 C   0  0  0  0  0  0  0  0  0  0  0  0
    0.8387   -3.4570    1.3177 H   0  0  0  0  0  0  0  0  0  0  0  0
   -0.6719   -3.0386    2.8556 C   0  0  0  0  0  0  0  0  0  0  0  0
   -0.2502   -3.7314    3.5997 H   0  0  0  0  0  0  0  0  0  0  0  0
   -1.8106   -2.2775    3.1558 C   0  0  0  0  0  0  0  0  0  0  0  0
   -2.3110   -2.3564    4.1314 H   0  0  0  0  0  0  0  0  0  0  0  0
   -2.3034   -1.3922    2.1872 C   0  0  0  0  0  0  0  0  0  0  0  0
   -3.1798   -0.7347    2.3388 H   0  0  0  0  0  0  0  0  0  0  0  0
    0.4856   -0.0083   -2.3356 C   0  0  0  0  0  0  0  0  0  0  0  0
   -0.0022    0.9490   -2.6111 H   0  0  0  0  0  0  0  0  0  0  0  0
    0.1552   -0.7589   -3.0734 H   0  0  0  0  0  0  0  0  0  0  0  0
    2.0141    0.1386   -2.2079 C   0  0  0  0  0  0  0  0  0  0  0  0
    2.5276   -0.8238   -2.4265 H   0  0  0  0  0  0  0  0  0  0  0  0
    2.4203    0.9183   -2.8876 H   0  0  0  0  0  0  0  0  0  0  0  0
    3.4080    0.4094   -0.1456 C   0  0  0  0  0  0  0  0  0  0  0  0
    3.5057    0.5632    1.2647 C   0  0  0  0  0  0  0  0  0  0  0  0
    2.6081    0.7668    1.8661 H   0  0  0  0  0  0  0  0  0  0  0  0
    4.7459    0.4741    1.9087 C   0  0  0  0  0  0  0  0  0  0  0  0
    4.7870    0.5945    3.0023 H   0  0  0  0  0  0  0  0  0  0  0  0
    5.9246    0.2432    1.1824 C   0  0  0  0  0  0  0  0  0  0  0  0
    6.8956    0.1793    1.6942 H   0  0  0  0  0  0  0  0  0  0  0  0
    5.8385    0.1053   -0.2122 C   0  0  0  0  0  0  0  0  0  0  0  0
    6.7498   -0.0700   -0.8049 H   0  0  0  0  0  0  0  0  0  0  0  0
    4.6075    0.1869   -0.8736 C   0  0  0  0  0  0  0  0  0  0  0  0
    4.5736    0.0814   -1.9661 H   0  0  0  0  0  0  0  0  0  0  0  0
    1.0200   -3.7399   -1.5834 C   0  0  0  0  0  0  0  0  0  0  0  0
    2.0407   -4.1419   -1.7303 H   0  0  0  0  0  0  0  0  0  0  0  0
    0.5340   -3.6160   -2.5784 H   0  0  0  0  0  0  0  0  0  0  0  0
    0.4275   -4.4827   -0.9998 H   0  0  0  0  0  0  0  0  0  0  0  0
  1 17  1  0  0  0  0
  2 14  1  0  0  0  0
  2  6  1  0  0  0  0
  3 17  1  0  0  0  0
  3 15  1  0  0  0  0
  4 26  1  0  0  0  0
  5 34  1  0  0  0  0
  5 15  1  0  0  0  0
  6  7  1  0  0  0  0
  6  8  1  0  0  0  0
  8  9  1  0  0  0  0
 10  8  2  0  0  0  0
 10 11  1  0  0  0  0
 12 10  1  0  0  0  0
 13 12  1  0  0  0  0
 14 12  2  0  0  0  0
 15 14  1  0  0  0  0
 15 16  1  1  0  0  0
 17 18  1  6  0  0  0
 19 17  1  6  0  0  0
 19  4  1  0  0  0  0
 19 20  1  0  0  0  0
 20 22  2  0  0  0  0
 21 20  1  0  0  0  0
 22 24  1  0  0  0  0
 22 23  1  0  0  0  0
 24 25  1  0  0  0  0
 26 27  1  0  0  0  0
 26 24  2  0  0  0  0
 28 31  1  0  0  0  0
 28  3  1  0  0  0  0
 29 28  1  0  0  0  0
 30 28  1  0  0  0  0
 31  5  1  0  0  0  0
 32 31  1  0  0  0  0
 33 31  1  0  0  0  0
 34 35  1  0  0  0  0
 35 36  1  0  0  0  0
 35 37  2  0  0  0  0
 37 38  1  0  0  0  0
 39 40  1  0  0  0  0
 39 37  1  0  0  0  0
 41 39  2  0  0  0  0
 42 41  1  0  0  0  0
 43 41  1  0  0  0  0
 43 34  2  0  0  0  0
 44 43  1  0  0  0  0
 45 48  1  0  0  0  0
 45  1  1  0  0  0  0
 46 45  1  0  0  0  0
 47 45  1  0  0  0  0
M  END
