1,12
 OpenBabel05122313053D

 37 40  0  0  0  0  0  0  0  0999 V2000
    1.7027   -2.2800   -0.7415 N   0  0  0  0  0  2  0  0  0  0  0  0
    2.8751   -2.9139   -0.9541 C   0  0  0  0  0  3  0  0  0  0  0  0
    3.7795   -2.2990   -0.8256 H   0  0  0  0  0  0  0  0  0  0  0  0
    2.9418   -4.2629   -1.3203 C   0  0  0  0  0  0  0  0  0  0  0  0
    3.9208   -4.7345   -1.4843 H   0  0  0  0  0  0  0  0  0  0  0  0
    1.7478   -4.9858   -1.4703 C   0  0  0  0  0  0  0  0  0  0  0  0
    1.7662   -6.0472   -1.7573 H   0  0  0  0  0  0  0  0  0  0  0  0
    0.5287   -4.3359   -1.2458 C   0  0  0  0  0  0  0  0  0  0  0  0
   -0.4249   -4.8726   -1.3489 H   0  0  0  0  0  0  0  0  0  0  0  0
    0.5346   -2.9790   -0.8786 C   0  0  0  0  0  0  0  0  0  0  0  0
   -0.6674   -2.1960   -0.6102 C   0  0  0  0  0  0  0  0  0  0  0  0
   -0.5141   -0.8902   -0.1987 N   0  0  0  0  0  2  0  0  0  0  0  0
   -1.6739   -0.3173   -0.0011 N   0  0  0  0  0  2  0  0  0  0  0  0
   -2.6099   -1.2534   -0.2747 N   0  0  0  0  0  0  0  0  0  0  0  0
   -2.0379   -2.4364   -0.6542 C   0  0  0  0  0  0  0  0  0  0  0  0
   -2.6249   -3.3274   -0.8896 H   0  0  0  0  0  0  0  0  0  0  0  0
   -3.9966   -0.9395   -0.1434 C   0  0  0  0  0  0  0  0  0  0  0  0
   -4.3879    0.1066    0.7106 C   0  0  0  0  0  0  0  0  0  0  0  0
   -3.6269    0.6661    1.2706 H   0  0  0  0  0  0  0  0  0  0  0  0
   -5.7453    0.4065    0.8427 C   0  0  0  0  0  0  0  0  0  0  0  0
   -6.0470    1.2055    1.5350 H   0  0  0  0  0  0  0  0  0  0  0  0
   -6.7387   -0.3188    0.1413 C   0  0  0  0  0  0  0  0  0  0  0  0
   -6.3095   -1.3616   -0.7143 C   0  0  0  0  0  0  0  0  0  0  0  0
   -7.0514   -1.9165   -1.3060 H   0  0  0  0  0  0  0  0  0  0  0  0
   -4.9554   -1.6715   -0.8649 C   0  0  0  0  0  0  0  0  0  0  0  0
   -4.6531   -2.4571   -1.5722 H   0  0  0  0  0  0  0  0  0  0  0  0
   -8.1761    0.0046    0.2927 C   0  0  0  0  0  0  0  0  0  0  0  0
   -8.6000    1.3362    0.5101 C   0  0  0  0  0  0  0  0  0  0  0  0
   -7.8575    2.1479    0.5373 H   0  0  0  0  0  0  0  0  0  0  0  0
   -9.9596    1.6416    0.6504 C   0  0  0  0  0  0  0  0  0  0  0  0
  -10.2706    2.6853    0.8065 H   0  0  0  0  0  0  0  0  0  0  0  0
  -10.9231    0.6225    0.5819 C   0  0  0  0  0  0  0  0  0  0  0  0
  -11.9908    0.8627    0.6944 H   0  0  0  0  0  0  0  0  0  0  0  0
  -10.5171   -0.7047    0.3692 C   0  0  0  0  0  0  0  0  0  0  0  0
  -11.2654   -1.5102    0.3248 H   0  0  0  0  0  0  0  0  0  0  0  0
   -9.1582   -1.0107    0.2233 C   0  0  0  0  0  0  0  0  0  0  0  0
   -8.8514   -2.0585    0.0859 H   0  0  0  0  0  0  0  0  0  0  0  0
  2  3  1  0  0  0  0
  2  1  1  0  0  0  0
  4  2  1  0  0  0  0
  5  4  1  0  0  0  0
  6  4  2  0  0  0  0
  6  8  1  0  0  0  0
  7  6  1  0  0  0  0
  8 10  2  0  0  0  0
  9  8  1  0  0  0  0
 10  1  1  0  0  0  0
 10 11  1  0  0  0  0
 11 12  1  0  0  0  0
 12 13  1  0  0  0  0
 14 17  1  0  0  0  0
 14 13  1  0  0  0  0
 15 11  2  0  0  0  0
 15 14  1  0  0  0  0
 16 15  1  0  0  0  0
 17 18  1  0  0  0  0
 18 20  2  0  0  0  0
 18 19  1  0  0  0  0
 20 21  1  0  0  0  0
 22 27  1  0  0  0  0
 22 20  1  0  0  0  0
 23 22  2  0  0  0  0
 24 23  1  0  0  0  0
 25 23  1  0  0  0  0
 25 17  2  0  0  0  0
 26 25  1  0  0  0  0
 27 28  1  0  0  0  0
 28 29  1  0  0  0  0
 28 30  2  0  0  0  0
 30 31  1  0  0  0  0
 32 30  1  0  0  0  0
 32 33  1  0  0  0  0
 34 32  2  0  0  0  0
 35 34  1  0  0  0  0
 36 27  2  0  0  0  0
 36 34  1  0  0  0  0
 37 36  1  0  0  0  0
M  END
