1,2
 OpenBabel05122313053D

 33 35  0  0  1  0  0  0  0  0999 V2000
   -1.5465    0.4847   -0.0197 N   0  0  0  0  0  2  0  0  0  0  0  0
    1.1465    0.6848   -0.0138 N   0  0  0  0  0  2  0  0  0  0  0  0
   -1.0100    1.7056    0.0999 C   0  0  0  0  0  0  0  0  0  0  0  0
   -1.8132    2.8734    0.2338 C   0  0  0  0  0  0  0  0  0  0  0  0
   -1.3318    3.8571    0.3332 H   0  0  0  0  0  0  0  0  0  0  0  0
   -3.1915    2.7389    0.2436 C   0  0  0  0  0  0  0  0  0  0  0  0
   -3.8415    3.6201    0.3581 H   0  0  0  0  0  0  0  0  0  0  0  0
   -3.7828    1.4530    0.0963 C   0  0  0  0  0  0  0  0  0  0  0  0
   -5.1885    1.2320    0.0800 C   0  0  0  0  0  0  0  0  0  0  0  0
   -5.8651    2.0920    0.1997 H   0  0  0  0  0  0  0  0  0  0  0  0
   -5.6908   -0.0500   -0.0891 C   0  0  0  0  0  0  0  0  0  0  0  0
   -6.7785   -0.2155   -0.1018 H   0  0  0  0  0  0  0  0  0  0  0  0
   -4.8116   -1.1564   -0.2603 C   0  0  0  0  0  0  0  0  0  0  0  0
   -5.2304   -2.1618   -0.4158 H   0  0  0  0  0  0  0  0  0  0  0  0
   -3.4370   -0.9843   -0.2435 C   0  0  0  0  0  0  0  0  0  0  0  0
   -2.7385   -1.8174   -0.4226 H   0  0  0  0  0  0  0  0  0  0  0  0
   -2.8971    0.3209   -0.0509 C   0  0  1  0  0  3  0  0  0  0  0  0
    0.4561    1.7761    0.0907 C   0  0  0  0  0  3  0  0  0  0  0  0
    0.9337    2.7706    0.2017 H   0  0  0  0  0  0  0  0  0  0  0  0
    2.5482    0.6558   -0.0620 C   0  0  0  0  0  0  0  0  0  0  0  0
    3.1991   -0.4771    0.4799 C   0  0  0  0  0  0  0  0  0  0  0  0
    2.5841   -1.2595    0.9556 H   0  0  0  0  0  0  0  0  0  0  0  0
    4.5927   -0.5491    0.4623 C   0  0  0  0  0  0  0  0  0  0  0  0
    5.0885   -1.4271    0.9052 H   0  0  0  0  0  0  0  0  0  0  0  0
    5.3781    0.4743   -0.1138 C   0  0  0  0  0  0  0  0  0  0  0  0
    4.7118    1.5888   -0.6679 C   0  0  0  0  0  0  0  0  0  0  0  0
    5.3021    2.3883   -1.1425 H   0  0  0  0  0  0  0  0  0  0  0  0
    3.3176    1.6892   -0.6425 C   0  0  0  0  0  0  0  0  0  0  0  0
    2.8203    2.5484   -1.1171 H   0  0  0  0  0  0  0  0  0  0  0  0
    6.8783    0.3572   -0.1638 C   0  0  0  0  0  0  0  0  0  0  0  0
    7.3583    1.3188   -0.4288 H   0  0  0  0  0  0  0  0  0  0  0  0
    7.1912   -0.3931   -0.9213 H   0  0  0  0  0  0  0  0  0  0  0  0
    7.2896    0.0186    0.8086 H   0  0  0  0  0  0  0  0  0  0  0  0
  1  3  1  0  0  0  0
  2 18  1  0  0  0  0
  3  4  2  0  0  0  0
  4  6  1  0  0  0  0
  4  5  1  0  0  0  0
  6  7  1  0  0  0  0
  8  6  2  0  0  0  0
  9  8  1  0  0  0  0
  9 10  1  0  0  0  0
 11  9  2  0  0  0  0
 12 11  1  0  0  0  0
 13 15  2  0  0  0  0
 13 11  1  0  0  0  0
 14 13  1  0  0  0  0
 16 15  1  0  0  0  0
 17 15  1  6  0  0  0
 17  1  1  0  0  0  0
 17  8  1  0  0  0  0
 18  3  1  0  0  0  0
 18 19  1  0  0  0  0
 20  2  1  0  0  0  0
 20 21  1  0  0  0  0
 21 22  1  0  0  0  0
 23 21  2  0  0  0  0
 23 24  1  0  0  0  0
 25 23  1  0  0  0  0
 26 28  1  0  0  0  0
 26 25  2  0  0  0  0
 27 26  1  0  0  0  0
 28 20  2  0  0  0  0
 29 28  1  0  0  0  0
 30 25  1  0  0  0  0
 30 33  1  0  0  0  0
 31 30  1  0  0  0  0
 32 30  1  0  0  0  0
M  END
