1,2
 OpenBabel05122313053D

 17 17  0  0  0  0  0  0  0  0999 V2000
   -1.4704   -1.3296   -0.0003 N   0  0  0  0  0  2  0  0  0  0  0  0
   -1.6081    1.2054   -0.0002 N   0  0  0  0  0  2  0  0  0  0  0  0
   -2.8207    0.5836   -0.0001 C   0  0  0  0  0  0  0  0  0  0  0  0
   -4.1003    1.2048    0.0000 C   0  0  0  0  0  0  0  0  0  0  0  0
   -4.1855    2.2997    0.0002 H   0  0  0  0  0  0  0  0  0  0  0  0
   -5.2500    0.4162   -0.0001 C   0  0  0  0  0  0  0  0  0  0  0  0
   -6.2381    0.9003    0.0000 H   0  0  0  0  0  0  0  0  0  0  0  0
   -5.1663   -1.0013   -0.0003 C   0  0  0  0  0  0  0  0  0  0  0  0
   -6.0887   -1.6010   -0.0004 H   0  0  0  0  0  0  0  0  0  0  0  0
   -3.9281   -1.6378   -0.0004 C   0  0  0  0  0  0  0  0  0  0  0  0
   -3.8542   -2.7365   -0.0006 H   0  0  0  0  0  0  0  0  0  0  0  0
   -2.7394   -0.8613   -0.0002 C   0  0  0  0  0  0  0  0  0  0  0  0
   -1.5778    2.6534   -0.0003 C   0  0  0  0  0  0  0  0  0  0  0  0
   -2.0852    3.0720   -0.8983 H   0  0  0  0  0  0  0  0  0  0  0  0
   -2.0833    3.0722    0.8986 H   0  0  0  0  0  0  0  0  0  0  0  0
   -0.5371    3.0209   -0.0016 H   0  0  0  0  0  0  0  0  0  0  0  0
   -1.3660   -2.3493   -0.0008 H   0  0  0  0  0  0  0  0  0  0  0  0
  1 12  1  0  0  0  0
  2  3  1  0  0  0  0
  3  4  1  0  0  0  0
  4  5  1  0  0  0  0
  6  7  1  0  0  0  0
  6  4  2  0  0  0  0
  8  6  1  0  0  0  0
  9  8  1  0  0  0  0
 10  8  2  0  0  0  0
 10 12  1  0  0  0  0
 11 10  1  0  0  0  0
 12  3  2  0  0  0  0
 13  2  1  0  0  0  0
 13 15  1  0  0  0  0
 14 13  1  0  0  0  0
 16 13  1  0  0  0  0
 17  1  1  0  0  0  0
M  END
