1,2
 OpenBabel05122313053D

 27 27  0  0  1  0  0  0  0  0999 V2000
    1.1993   -1.4998    0.8014 N   0  0  0  0  0  2  0  0  0  0  0  0
   -0.3281   -2.0225   -0.6806 N   0  0  0  0  0  2  0  0  0  0  0  0
    0.6363   -2.5544    0.1431 C   0  0  2  0  0  3  0  0  0  0  0  0
    0.8322   -3.9607    0.1605 C   0  0  0  0  0  0  0  0  0  0  0  0
    1.5769   -4.4176    0.8243 H   0  0  0  0  0  0  0  0  0  0  0  0
    0.0647   -4.7726   -0.6891 C   0  0  0  0  0  0  0  0  0  0  0  0
   -0.9130   -4.1708   -1.5225 C   0  0  0  0  0  0  0  0  0  0  0  0
   -1.5320   -4.7807   -2.1959 H   0  0  0  0  0  0  0  0  0  0  0  0
   -1.0938   -2.7874   -1.4692 C   0  0  0  0  0  0  0  0  0  0  0  0
   -1.8660   -2.2619   -2.0526 H   0  0  0  0  0  0  0  0  0  0  0  0
    0.2656   -6.2659   -0.7193 C   0  0  0  0  0  0  0  0  0  0  0  0
    0.5912   -6.6028   -1.7261 H   0  0  0  0  0  0  0  0  0  0  0  0
   -0.6815   -6.8001   -0.4967 H   0  0  0  0  0  0  0  0  0  0  0  0
    1.0268   -6.5951    0.0137 H   0  0  0  0  0  0  0  0  0  0  0  0
    1.7755   -1.6384    2.1559 C   0  0  0  0  0  0  0  0  0  0  0  0
    2.0028   -0.2358    2.7421 C   0  0  0  0  0  0  0  0  0  0  0  0
    2.6961    0.3544    2.1131 H   0  0  0  0  0  0  0  0  0  0  0  0
    2.4438   -0.3182    3.7553 H   0  0  0  0  0  0  0  0  0  0  0  0
    1.0480    0.3167    2.8208 H   0  0  0  0  0  0  0  0  0  0  0  0
    3.1442   -2.3524    2.0854 C   0  0  0  0  0  0  0  0  0  0  0  0
    3.0659   -3.3824    1.6892 H   0  0  0  0  0  0  0  0  0  0  0  0
    3.6030   -2.4139    3.0933 H   0  0  0  0  0  0  0  0  0  0  0  0
    3.8359   -1.7889    1.4268 H   0  0  0  0  0  0  0  0  0  0  0  0
    0.8056   -2.3946    3.0892 C   0  0  0  0  0  0  0  0  0  0  0  0
    0.6212   -3.4316    2.7480 H   0  0  0  0  0  0  0  0  0  0  0  0
   -0.1705   -1.8690    3.1135 H   0  0  0  0  0  0  0  0  0  0  0  0
    1.2073   -2.4416    4.1218 H   0  0  0  0  0  0  0  0  0  0  0  0
  1 15  1  0  0  0  0
  2  3  1  0  0  0  0
  3  4  1  0  0  0  0
  3  1  1  1  0  0  0
  4  5  1  0  0  0  0
  6  4  2  0  0  0  0
  7  9  2  0  0  0  0
  7  6  1  0  0  0  0
  8  7  1  0  0  0  0
  9  2  1  0  0  0  0
 10  9  1  0  0  0  0
 11  6  1  0  0  0  0
 11 13  1  0  0  0  0
 11 14  1  0  0  0  0
 12 11  1  0  0  0  0
 15 16  1  0  0  0  0
 15 24  1  0  0  0  0
 16 19  1  0  0  0  0
 16 18  1  0  0  0  0
 17 16  1  0  0  0  0
 20 15  1  0  0  0  0
 20 22  1  0  0  0  0
 21 20  1  0  0  0  0
 23 20  1  0  0  0  0
 24 26  1  0  0  0  0
 24 27  1  0  0  0  0
 25 24  1  0  0  0  0
M  END
