29,30
 OpenBabel05122313053D

 30 31  0  0  1  0  0  0  0  0999 V2000
    3.2279    1.8044    0.5110 C   0  0  0  0  0  3  0  0  0  0  0  0
    3.5581    0.9881    1.1738 H   0  0  0  0  0  0  0  0  0  0  0  0
    4.0372    2.9186    0.2719 C   0  0  0  0  0  0  0  0  0  0  0  0
    5.0248    2.9956    0.7484 H   0  0  0  0  0  0  0  0  0  0  0  0
    3.5572    3.9238   -0.5829 C   0  0  0  0  0  0  0  0  0  0  0  0
    4.1659    4.8141   -0.7993 H   0  0  0  0  0  0  0  0  0  0  0  0
    2.2906    3.7722   -1.1623 C   0  0  0  0  0  0  0  0  0  0  0  0
    1.8849    4.5374   -1.8410 H   0  0  0  0  0  0  0  0  0  0  0  0
    1.5367    2.6239   -0.8716 C   0  0  0  0  0  0  0  0  0  0  0  0
    0.1433    2.4260   -1.4293 C   0  0  0  0  0  0  0  0  0  0  0  0
   -0.5461    3.0921   -0.8580 H   0  0  0  0  0  0  0  0  0  0  0  0
    0.1100    2.7891   -2.4810 H   0  0  0  0  0  0  0  0  0  0  0  0
   -1.4984    0.7358   -1.7560 C   0  0  2  0  0  3  0  0  0  0  0  0
   -2.4538    1.7714   -2.2847 C   0  0  0  0  0  0  0  0  0  0  0  0
   -2.7033    2.5092   -1.4918 H   0  0  0  0  0  0  0  0  0  0  0  0
   -3.3898    1.3287   -2.6645 H   0  0  0  0  0  0  0  0  0  0  0  0
   -1.9893    2.3408   -3.1168 H   0  0  0  0  0  0  0  0  0  0  0  0
   -1.9157   -0.6860   -1.6960 C   0  0  0  0  0  0  0  0  0  0  0  0
   -0.9620   -1.7152   -1.8750 C   0  0  0  0  0  0  0  0  0  0  0  0
    0.0802   -1.4430   -2.0965 H   0  0  0  0  0  0  0  0  0  0  0  0
   -1.3405   -3.0604   -1.7982 C   0  0  0  0  0  0  0  0  0  0  0  0
   -0.5912   -3.8486   -1.9687 H   0  0  0  0  0  0  0  0  0  0  0  0
   -2.6771   -3.4052   -1.5253 C   0  0  0  0  0  0  0  0  0  0  0  0
   -2.9753   -4.4629   -1.4680 H   0  0  0  0  0  0  0  0  0  0  0  0
   -3.6344   -2.3930   -1.3521 C   0  0  0  0  0  0  0  0  0  0  0  0
   -4.6837   -2.6545   -1.1494 H   0  0  0  0  0  0  0  0  0  0  0  0
   -3.2602   -1.0445   -1.4516 C   0  0  0  0  0  0  0  0  0  0  0  0
   -4.0207   -0.2620   -1.3152 H   0  0  0  0  0  0  0  0  0  0  0  0
    2.0049    1.6606   -0.0458 N   0  0  0  0  0  2  0  0  0  0  0  0
   -0.3005    1.0450   -1.3317 N   0  0  0  0  0  2  0  0  0  0  0  0
  1  2  1  0  0  0  0
  3  1  1  0  0  0  0
  3  4  1  0  0  0  0
  5  3  2  0  0  0  0
  6  5  1  0  0  0  0
  7  9  2  0  0  0  0
  7  5  1  0  0  0  0
  8  7  1  0  0  0  0
  9 29  1  0  0  0  0
 10 30  1  0  0  0  0
 10  9  1  0  0  0  0
 10 11  1  0  0  0  0
 12 10  1  0  0  0  0
 13 18  1  0  0  0  0
 13 30  1  1  0  0  0
 14 13  1  0  0  0  0
 14 15  1  0  0  0  0
 16 14  1  0  0  0  0
 17 14  1  0  0  0  0
 18 27  1  0  0  0  0
 19 21  1  0  0  0  0
 19 18  2  0  0  0  0
 20 19  1  0  0  0  0
 21 23  2  0  0  0  0
 22 21  1  0  0  0  0
 23 24  1  0  0  0  0
 23 25  1  0  0  0  0
 25 26  1  0  0  0  0
 27 25  2  0  0  0  0
 27 28  1  0  0  0  0
 29  1  1  0  0  0  0
M  END
