1,2
 OpenBabel05122313053D

 36 37  0  0  0  0  0  0  0  0999 V2000
   -1.9719   -1.2355    0.0139 N   0  0  0  0  0  2  0  0  0  0  0  0
    0.5619   -1.0988    0.0059 N   0  0  0  0  0  2  0  0  0  0  0  0
    0.0980   -2.3431    0.0419 C   0  0  0  0  0  0  0  0  0  0  0  0
    0.7769   -3.2107    0.0608 H   0  0  0  0  0  0  0  0  0  0  0  0
   -1.3312   -2.4658    0.0464 C   0  0  0  0  0  0  0  0  0  0  0  0
   -2.0641   -3.6702    0.0770 C   0  0  0  0  0  0  0  0  0  0  0  0
   -1.5202   -4.6259    0.1016 H   0  0  0  0  0  0  0  0  0  0  0  0
   -3.4589   -3.6268    0.0759 C   0  0  0  0  0  0  0  0  0  0  0  0
   -4.0482   -4.5550    0.0995 H   0  0  0  0  0  0  0  0  0  0  0  0
   -4.0977   -2.3682    0.0439 C   0  0  0  0  0  0  0  0  0  0  0  0
   -5.1941   -2.2876    0.0420 H   0  0  0  0  0  0  0  0  0  0  0  0
   -3.3277   -1.2057    0.0139 C   0  0  0  0  0  0  0  0  0  0  0  0
   -3.7648   -0.1954   -0.0115 H   0  0  0  0  0  0  0  0  0  0  0  0
    1.9742   -0.8670    0.0289 C   0  0  0  0  0  0  0  0  0  0  0  0
    2.6141   -0.4662   -1.1700 C   0  0  0  0  0  0  0  0  0  0  0  0
    3.9951   -0.2021   -1.1246 C   0  0  0  0  0  0  0  0  0  0  0  0
    4.5052    0.1042   -2.0517 H   0  0  0  0  0  0  0  0  0  0  0  0
    4.7165   -0.3155    0.0708 C   0  0  0  0  0  0  0  0  0  0  0  0
    5.7963   -0.1033    0.0874 H   0  0  0  0  0  0  0  0  0  0  0  0
    4.0562   -0.6907    1.2479 C   0  0  0  0  0  0  0  0  0  0  0  0
    4.6153   -0.7660    2.1942 H   0  0  0  0  0  0  0  0  0  0  0  0
    2.6762   -0.9694    1.2565 C   0  0  0  0  0  0  0  0  0  0  0  0
    1.8483   -0.3587   -2.4682 C   0  0  0  0  0  0  0  0  0  0  0  0
    2.3730    0.3625   -3.1288 H   0  0  0  0  0  0  0  0  0  0  0  0
    0.8432    0.0683   -2.2566 H   0  0  0  0  0  0  0  0  0  0  0  0
    1.6912   -1.7001   -3.1998 C   0  0  0  0  0  0  0  0  0  0  0  0
    2.6776   -2.1516   -3.4321 H   0  0  0  0  0  0  0  0  0  0  0  0
    1.1404   -1.5695   -4.1534 H   0  0  0  0  0  0  0  0  0  0  0  0
    1.1256   -2.4293   -2.5852 H   0  0  0  0  0  0  0  0  0  0  0  0
    1.9722   -1.2666    2.5637 C   0  0  0  0  0  0  0  0  0  0  0  0
    2.7163   -1.6783    3.2771 H   0  0  0  0  0  0  0  0  0  0  0  0
    1.2069   -2.0572    2.4233 H   0  0  0  0  0  0  0  0  0  0  0  0
    1.3033   -0.0221    3.1697 C   0  0  0  0  0  0  0  0  0  0  0  0
    2.0470    0.7824    3.3409 H   0  0  0  0  0  0  0  0  0  0  0  0
    0.8228   -0.2628    4.1397 H   0  0  0  0  0  0  0  0  0  0  0  0
    0.5247    0.3764    2.4852 H   0  0  0  0  0  0  0  0  0  0  0  0
  1  5  1  0  0  0  0
  2 14  1  0  0  0  0
  2  3  1  0  0  0  0
  3  5  2  0  0  0  0
  3  4  1  0  0  0  0
  5  6  1  0  0  0  0
  6  7  1  0  0  0  0
  8  6  2  0  0  0  0
  8  9  1  0  0  0  0
 10  8  1  0  0  0  0
 11 10  1  0  0  0  0
 12  1  1  0  0  0  0
 12 10  2  0  0  0  0
 13 12  1  0  0  0  0
 14 22  1  0  0  0  0
 15 16  1  0  0  0  0
 15 14  2  0  0  0  0
 16 18  2  0  0  0  0
 17 16  1  0  0  0  0
 18 19  1  0  0  0  0
 18 20  1  0  0  0  0
 20 22  2  0  0  0  0
 20 21  1  0  0  0  0
 22 30  1  0  0  0  0
 23 25  1  0  0  0  0
 23 15  1  0  0  0  0
 24 23  1  0  0  0  0
 26 29  1  0  0  0  0
 26 23  1  0  0  0  0
 27 26  1  0  0  0  0
 28 26  1  0  0  0  0
 30 33  1  0  0  0  0
 30 31  1  0  0  0  0
 32 30  1  0  0  0  0
 33 34  1  0  0  0  0
 33 35  1  0  0  0  0
 36 33  1  0  0  0  0
M  END
