5,6
 OpenBabel05122313053D

 62 64  0  0  1  0  0  0  0  0999 V2000
    2.5133    1.5074   -0.3332 O   0  0  0  0  0  0  0  0  0  0  0  0
   -4.5885    0.0089   -1.7537 O   0  0  0  0  0  0  0  0  0  0  0  0
   -4.8753    0.8978    0.3219 O   0  0  0  0  0  0  0  0  0  0  0  0
   -2.0404    0.5226    0.7842 N   0  0  0  0  0  0  0  0  0  0  0  0
   -0.0107    2.3715    0.2566 N   0  0  0  0  0  2  0  0  0  0  0  0
    2.8436   -1.0446    0.5484 N   0  0  0  0  0  2  0  0  0  0  0  0
   -3.1971   -2.5285    0.3836 O   0  0  0  0  0  0  0  0  0  0  0  0
   -0.9733   -2.2749    0.7403 O   0  0  0  0  0  0  0  0  0  0  0  0
   -0.6007    5.0877    0.1852 C   0  0  0  0  0  0  0  0  0  0  0  0
   -0.8323    6.1633    0.1609 H   0  0  0  0  0  0  0  0  0  0  0  0
    3.5468    0.7967   -0.8660 C   0  0  0  0  0  0  0  0  0  0  0  0
    5.7735   -0.7233   -1.7564 C   0  0  0  0  0  3  0  0  0  0  0  0
    6.6437   -1.3125   -2.0824 H   0  0  0  0  0  0  0  0  0  0  0  0
    3.7451   -0.5280   -0.3349 C   0  0  0  0  0  0  0  0  0  0  0  0
   -2.0367    1.7988    1.4980 C   0  0  0  0  0  0  0  0  0  0  0  0
   -1.5825    1.6001    2.4964 H   0  0  0  0  0  0  0  0  0  0  0  0
   -3.0597    2.2141    1.6394 H   0  0  0  0  0  0  0  0  0  0  0  0
    0.8328    3.2226   -0.3454 C   0  0  1  0  0  3  0  0  0  0  0  0
    4.4037    1.2903   -1.8472 C   0  0  0  0  0  0  0  0  0  0  0  0
    4.2386    2.2861   -2.2778 H   0  0  0  0  0  0  0  0  0  0  0  0
   -6.4459   -1.5281   -1.3818 C   0  0  0  0  0  0  0  0  0  0  0  0
   -5.9364   -2.3370   -1.9425 H   0  0  0  0  0  0  0  0  0  0  0  0
   -7.5402   -1.6564   -1.5067 H   0  0  0  0  0  0  0  0  0  0  0  0
   -6.2036   -1.6403   -0.3070 H   0  0  0  0  0  0  0  0  0  0  0  0
   -1.1510    2.8191    0.8155 C   0  0  0  0  0  0  0  0  0  0  0  0
    4.8972   -1.2674   -0.7749 C   0  0  0  0  0  0  0  0  0  0  0  0
   -1.4872    4.1848    0.7853 C   0  0  0  0  0  0  0  0  0  0  0  0
   -2.4337    4.5245    1.2309 H   0  0  0  0  0  0  0  0  0  0  0  0
    2.0300    2.6311   -1.0544 C   0  0  0  0  0  0  0  0  0  0  0  0
    1.7211    2.2929   -2.0720 H   0  0  0  0  0  0  0  0  0  0  0  0
    2.8182    3.4086   -1.1567 H   0  0  0  0  0  0  0  0  0  0  0  0
   -2.5000   -0.6043    1.6043 C   0  0  0  0  0  0  0  0  0  0  0  0
   -3.5912   -0.5753    1.8139 H   0  0  0  0  0  0  0  0  0  0  0  0
   -1.9185   -0.5731    2.5502 H   0  0  0  0  0  0  0  0  0  0  0  0
    5.5136    0.5266   -2.2911 C   0  0  0  0  0  0  0  0  0  0  0  0
    6.1744    0.9493   -3.0624 H   0  0  0  0  0  0  0  0  0  0  0  0
    5.0954   -2.5480   -0.1882 C   0  0  0  0  0  0  0  0  0  0  0  0
    5.9719   -3.1442   -0.4870 H   0  0  0  0  0  0  0  0  0  0  0  0
   -4.1459    0.5257   -0.5826 C   0  0  0  0  0  0  0  0  0  0  0  0
    4.1936   -3.0269    0.7417 C   0  0  0  0  0  0  0  0  0  0  0  0
    4.3337   -4.0112    1.2114 H   0  0  0  0  0  0  0  0  0  0  0  0
    0.5825    4.6051   -0.3900 C   0  0  0  0  0  0  0  0  0  0  0  0
    1.2999    5.2853   -0.8724 H   0  0  0  0  0  0  0  0  0  0  0  0
    3.0424   -2.2538    1.0838 C   0  0  0  0  0  0  0  0  0  0  0  0
   -2.6243    0.5654   -0.5541 C   0  0  0  0  0  0  0  0  0  0  0  0
   -2.2011   -0.2459   -1.1817 H   0  0  0  0  0  0  0  0  0  0  0  0
   -2.2865    1.4915   -1.0637 H   0  0  0  0  0  0  0  0  0  0  0  0
   -2.1257   -1.8929    0.8901 C   0  0  0  0  0  0  0  0  0  0  0  0
    2.0149   -2.7968    2.0316 C   0  0  0  0  0  0  0  0  0  0  0  0
    1.6833   -2.0082    2.7391 H   0  0  0  0  0  0  0  0  0  0  0  0
    2.4022   -3.6726    2.5848 H   0  0  0  0  0  0  0  0  0  0  0  0
    1.1069   -3.1065    1.4728 H   0  0  0  0  0  0  0  0  0  0  0  0
   -6.0192   -0.1586   -1.8854 C   0  0  0  0  0  0  0  0  0  0  0  0
   -6.5260    0.6491   -1.3201 H   0  0  0  0  0  0  0  0  0  0  0  0
   -6.2242   -0.0356   -2.9669 H   0  0  0  0  0  0  0  0  0  0  0  0
   -2.9241   -3.6619   -0.4868 C   0  0  0  0  0  0  0  0  0  0  0  0
   -2.1125   -4.2666   -0.0347 H   0  0  0  0  0  0  0  0  0  0  0  0
   -3.8660   -4.2437   -0.4724 H   0  0  0  0  0  0  0  0  0  0  0  0
   -2.5570   -3.1967   -1.8864 C   0  0  0  0  0  0  0  0  0  0  0  0
   -3.3470   -2.5385   -2.3000 H   0  0  0  0  0  0  0  0  0  0  0  0
   -2.4476   -4.0752   -2.5539 H   0  0  0  0  0  0  0  0  0  0  0  0
   -1.5984   -2.6379   -1.8888 H   0  0  0  0  0  0  0  0  0  0  0  0
  2 39  1  0  0  0  0
  4 15  1  0  0  0  0
  4 32  1  0  0  0  0
  5 25  1  0  0  0  0
  6 44  1  0  0  0  0
  7 48  1  0  0  0  0
  8 48  2  0  0  0  0
  9 27  1  0  0  0  0
 10  9  1  0  0  0  0
 11 14  2  0  0  0  0
 11  1  1  0  0  0  0
 12 26  1  0  0  0  0
 13 12  1  0  0  0  0
 14  6  1  0  0  0  0
 15 17  1  0  0  0  0
 15 16  1  0  0  0  0
 18 29  1  6  0  0  0
 18  5  1  0  0  0  0
 19 11  1  0  0  0  0
 20 19  1  0  0  0  0
 21 24  1  0  0  0  0
 22 21  1  0  0  0  0
 23 21  1  0  0  0  0
 25 15  1  0  0  0  0
 26 14  1  0  0  0  0
 26 37  2  0  0  0  0
 27 25  2  0  0  0  0
 27 28  1  0  0  0  0
 29  1  1  0  0  0  0
 30 29  1  0  0  0  0
 31 29  1  0  0  0  0
 32 33  1  0  0  0  0
 32 34  1  0  0  0  0
 35 19  2  0  0  0  0
 35 12  1  0  0  0  0
 36 35  1  0  0  0  0
 37 40  1  0  0  0  0
 38 37  1  0  0  0  0
 39 45  1  0  0  0  0
 39  3  2  0  0  0  0
 40 44  2  0  0  0  0
 40 41  1  0  0  0  0
 42 18  1  0  0  0  0
 42  9  2  0  0  0  0
 43 42  1  0  0  0  0
 44 49  1  0  0  0  0
 45  4  1  0  0  0  0
 46 45  1  0  0  0  0
 47 45  1  0  0  0  0
 48 32  1  0  0  0  0
 49 51  1  0  0  0  0
 49 50  1  0  0  0  0
 52 49  1  0  0  0  0
 53  2  1  0  0  0  0
 53 21  1  0  0  0  0
 53 54  1  0  0  0  0
 55 53  1  0  0  0  0
 56 58  1  0  0  0  0
 56 57  1  0  0  0  0
 56  7  1  0  0  0  0
 59 56  1  0  0  0  0
 60 59  1  0  0  0  0
 61 59  1  0  0  0  0
 62 59  1  0  0  0  0
M  END
