48,49
 OpenBabel05122313053D

 54 59  0  0  0  0  0  0  0  0999 V2000
    0.8812    2.1020   -0.3413 C   0  0  0  0  0  0  0  0  0  0  0  0
    1.1526    3.4986   -0.3960 C   0  0  0  0  0  0  0  0  0  0  0  0
    0.3023    4.1937   -0.3745 H   0  0  0  0  0  0  0  0  0  0  0  0
    2.4496    3.9619   -0.5347 C   0  0  0  0  0  0  0  0  0  0  0  0
    2.6618    5.0394   -0.6076 H   0  0  0  0  0  0  0  0  0  0  0  0
    3.5142    3.0284   -0.6115 C   0  0  0  0  0  0  0  0  0  0  0  0
    4.8846    3.4108   -0.8061 C   0  0  0  0  0  0  0  0  0  0  0  0
    5.1164    4.4817   -0.9091 H   0  0  0  0  0  0  0  0  0  0  0  0
    5.8852    2.4703   -0.8695 C   0  0  0  0  0  0  0  0  0  0  0  0
    6.9312    2.7713   -1.0296 H   0  0  0  0  0  0  0  0  0  0  0  0
    5.5882    1.0732   -0.7173 C   0  0  0  0  0  0  0  0  0  0  0  0
    6.5741    0.0563   -0.7660 C   0  0  0  0  0  0  0  0  0  0  0  0
    7.6269    0.3289   -0.9347 H   0  0  0  0  0  0  0  0  0  0  0  0
    6.1949   -1.2716   -0.5938 C   0  0  0  0  0  0  0  0  0  0  0  0
    6.9325   -2.0856   -0.6237 H   0  0  0  0  0  0  0  0  0  0  0  0
    4.8415   -1.5788   -0.3548 C   0  0  0  0  0  0  0  0  0  0  0  0
    4.5129   -2.6136   -0.1809 H   0  0  0  0  0  0  0  0  0  0  0  0
    4.2360    0.6711   -0.4946 C   0  0  0  0  0  0  0  0  0  0  0  0
    3.1797    1.6493   -0.4741 C   0  0  0  0  0  0  0  0  0  0  0  0
   -0.5175    1.6425   -0.3313 C   0  0  0  0  0  0  0  0  0  0  0  0
   -0.9686    0.6683   -1.2524 C   0  0  0  0  0  0  0  0  0  0  0  0
   -0.2741    0.2649   -2.0012 H   0  0  0  0  0  0  0  0  0  0  0  0
   -2.2919    0.2355   -1.2470 C   0  0  0  0  0  0  0  0  0  0  0  0
   -2.6239   -0.5166   -1.9759 H   0  0  0  0  0  0  0  0  0  0  0  0
   -3.2146    0.7479   -0.3015 C   0  0  0  0  0  0  0  0  0  0  0  0
   -2.7743    1.7465    0.6015 C   0  0  0  0  0  0  0  0  0  0  0  0
   -3.4725    2.1446    1.3505 H   0  0  0  0  0  0  0  0  0  0  0  0
   -1.4541    2.1942    0.5718 C   0  0  0  0  0  0  0  0  0  0  0  0
   -1.1216    2.9374    1.3123 H   0  0  0  0  0  0  0  0  0  0  0  0
   -4.7961   -1.1048   -0.5654 C   0  0  0  0  0  0  0  0  0  0  0  0
   -3.9701   -2.1237   -0.0443 C   0  0  0  0  0  0  0  0  0  0  0  0
   -3.1229   -1.8573    0.6042 H   0  0  0  0  0  0  0  0  0  0  0  0
   -4.2352   -3.4633   -0.3573 C   0  0  0  0  0  0  0  0  0  0  0  0
   -3.5838   -4.2499    0.0528 H   0  0  0  0  0  0  0  0  0  0  0  0
   -5.3290   -3.8049   -1.1701 C   0  0  0  0  0  0  0  0  0  0  0  0
   -5.5359   -4.8591   -1.4071 H   0  0  0  0  0  0  0  0  0  0  0  0
   -6.1576   -2.7900   -1.6766 C   0  0  0  0  0  0  0  0  0  0  0  0
   -7.0147   -3.0457   -2.3182 H   0  0  0  0  0  0  0  0  0  0  0  0
   -5.8923   -1.4455   -1.3853 C   0  0  0  0  0  0  0  0  0  0  0  0
   -6.5321   -0.6475   -1.7893 H   0  0  0  0  0  0  0  0  0  0  0  0
   -5.6082    1.1003    0.1365 C   0  0  0  0  0  0  0  0  0  0  0  0
   -6.6162    0.6090    0.9946 C   0  0  0  0  0  0  0  0  0  0  0  0
   -6.5501   -0.4240    1.3651 H   0  0  0  0  0  0  0  0  0  0  0  0
   -6.7583    3.2489    0.0557 C   0  0  0  0  0  0  0  0  0  0  0  0
   -6.8120    4.2813   -0.3223 H   0  0  0  0  0  0  0  0  0  0  0  0
   -5.6930    2.4285   -0.3365 C   0  0  0  0  0  0  0  0  0  0  0  0
   -4.9172    2.8085   -1.0169 H   0  0  0  0  0  0  0  0  0  0  0  0
    1.8929    1.2004   -0.3324 N   0  0  0  0  0  2  0  0  0  0  0  0
    3.8879   -0.6368   -0.3019 N   0  0  0  0  0  2  0  0  0  0  0  0
   -4.5321    0.2615   -0.2568 N   0  0  0  0  0  0  0  0  0  0  0  0
   -7.7623    2.7574    0.9064 C   0  0  0  0  0  0  0  0  0  0  0  0
   -8.6011    3.4027    1.2066 H   0  0  0  0  0  0  0  0  0  0  0  0
   -7.6856    1.4329    1.3677 C   0  0  0  0  0  0  0  0  0  0  0  0
   -8.4626    1.0368    2.0392 H   0  0  0  0  0  0  0  0  0  0  0  0
  1 48  1  0  0  0  0
  1 20  1  0  0  0  0
  2  3  1  0  0  0  0
  2  1  2  0  0  0  0
  4  2  1  0  0  0  0
  5  4  1  0  0  0  0
  6  4  2  0  0  0  0
  6 19  1  0  0  0  0
  7  6  1  0  0  0  0
  8  7  1  0  0  0  0
  9  7  2  0  0  0  0
  9 11  1  0  0  0  0
 10  9  1  0  0  0  0
 11 18  1  0  0  0  0
 12 11  2  0  0  0  0
 12 14  1  0  0  0  0
 13 12  1  0  0  0  0
 14 16  2  0  0  0  0
 15 14  1  0  0  0  0
 16 49  1  0  0  0  0
 16 17  1  0  0  0  0
 18 19  2  0  0  0  0
 18 49  1  0  0  0  0
 19 48  1  0  0  0  0
 20 28  1  0  0  0  0
 21 23  1  0  0  0  0
 21 20  2  0  0  0  0
 22 21  1  0  0  0  0
 23 25  2  0  0  0  0
 24 23  1  0  0  0  0
 25 50  1  0  0  0  0
 25 26  1  0  0  0  0
 26 27  1  0  0  0  0
 28 26  2  0  0  0  0
 28 29  1  0  0  0  0
 30 50  1  0  0  0  0
 30 31  1  0  0  0  0
 31 32  1  0  0  0  0
 33 31  2  0  0  0  0
 33 34  1  0  0  0  0
 35 33  1  0  0  0  0
 36 35  1  0  0  0  0
 37 39  1  0  0  0  0
 37 35  2  0  0  0  0
 38 37  1  0  0  0  0
 39 30  2  0  0  0  0
 40 39  1  0  0  0  0
 41 42  1  0  0  0  0
 42 43  1  0  0  0  0
 42 53  2  0  0  0  0
 44 51  2  0  0  0  0
 45 44  1  0  0  0  0
 46 44  1  0  0  0  0
 46 41  2  0  0  0  0
 47 46  1  0  0  0  0
 50 41  1  0  0  0  0
 51 52  1  0  0  0  0
 51 53  1  0  0  0  0
 53 54  1  0  0  0  0
M  END
