52,53
 OpenBabel05122313053D

 54 59  0  0  0  0  0  0  0  0999 V2000
    0.6507    0.1407   -0.1727 C   0  0  0  0  0  0  0  0  0  0  0  0
    0.3260   -0.8320    0.2230 H   0  0  0  0  0  0  0  0  0  0  0  0
   -0.3072    1.1317   -0.5296 C   0  0  0  0  0  0  0  0  0  0  0  0
    0.1878    2.3671   -0.9784 C   0  0  0  0  0  0  0  0  0  0  0  0
   -0.5043    3.1640   -1.2885 H   0  0  0  0  0  0  0  0  0  0  0  0
    1.5796    2.5933   -1.0660 C   0  0  0  0  0  0  0  0  0  0  0  0
    2.1630    3.8288   -1.5220 C   0  0  0  0  0  0  0  0  0  0  0  0
    1.4894    4.6495   -1.8117 H   0  0  0  0  0  0  0  0  0  0  0  0
    3.5265    3.9879   -1.5958 C   0  0  0  0  0  0  0  0  0  0  0  0
    3.9588    4.9379   -1.9447 H   0  0  0  0  0  0  0  0  0  0  0  0
    4.4233    2.9261   -1.2216 C   0  0  0  0  0  0  0  0  0  0  0  0
    5.8352    3.0271   -1.2761 C   0  0  0  0  0  0  0  0  0  0  0  0
    6.3019    3.9631   -1.6186 H   0  0  0  0  0  0  0  0  0  0  0  0
    6.6114    1.9368   -0.8903 C   0  0  0  0  0  0  0  0  0  0  0  0
    7.7091    1.9808   -0.9151 H   0  0  0  0  0  0  0  0  0  0  0  0
    5.9815    0.7544   -0.4531 C   0  0  0  0  0  0  0  0  0  0  0  0
    6.5666   -0.1202   -0.1335 H   0  0  0  0  0  0  0  0  0  0  0  0
    3.8710    1.6927   -0.7643 C   0  0  0  0  0  0  0  0  0  0  0  0
    2.4487    1.5297   -0.6893 C   0  0  0  0  0  0  0  0  0  0  0  0
   -1.7500    0.8479   -0.4108 C   0  0  0  0  0  0  0  0  0  0  0  0
   -2.6825    1.8803   -0.1505 C   0  0  0  0  0  0  0  0  0  0  0  0
   -2.3292    2.9131   -0.0120 H   0  0  0  0  0  0  0  0  0  0  0  0
   -4.0481    1.6217   -0.0391 C   0  0  0  0  0  0  0  0  0  0  0  0
   -4.7465    2.4449    0.1658 H   0  0  0  0  0  0  0  0  0  0  0  0
   -4.5469    0.3030   -0.1801 C   0  0  0  0  0  0  0  0  0  0  0  0
   -3.6217   -0.7377   -0.4391 C   0  0  0  0  0  0  0  0  0  0  0  0
   -3.9840   -1.7689   -0.5510 H   0  0  0  0  0  0  0  0  0  0  0  0
   -2.2585   -0.4659   -0.5514 C   0  0  0  0  0  0  0  0  0  0  0  0
   -1.5745   -1.2998   -0.7684 H   0  0  0  0  0  0  0  0  0  0  0  0
   -6.7391    0.8086    0.8083 C   0  0  0  0  0  0  0  0  0  0  0  0
   -6.2927    1.1364    2.1068 C   0  0  0  0  0  0  0  0  0  0  0  0
   -5.3056    0.7870    2.4428 H   0  0  0  0  0  0  0  0  0  0  0  0
   -7.1053    1.8964    2.9578 C   0  0  0  0  0  0  0  0  0  0  0  0
   -6.7461    2.1434    3.9684 H   0  0  0  0  0  0  0  0  0  0  0  0
   -8.3760    2.3233    2.5377 C   0  0  0  0  0  0  0  0  0  0  0  0
   -9.0140    2.9133    3.2120 H   0  0  0  0  0  0  0  0  0  0  0  0
   -8.8259    1.9866    1.2504 C   0  0  0  0  0  0  0  0  0  0  0  0
   -9.8180    2.3184    0.9083 H   0  0  0  0  0  0  0  0  0  0  0  0
   -8.0143    1.2412    0.3855 C   0  0  0  0  0  0  0  0  0  0  0  0
   -8.3615    0.9848   -0.6259 H   0  0  0  0  0  0  0  0  0  0  0  0
   -6.5208   -1.0197   -0.8078 C   0  0  0  0  0  0  0  0  0  0  0  0
   -7.4505   -1.8836   -0.1904 C   0  0  0  0  0  0  0  0  0  0  0  0
   -7.6955   -1.7399    0.8718 H   0  0  0  0  0  0  0  0  0  0  0  0
   -8.0517   -2.9114   -0.9281 C   0  0  0  0  0  0  0  0  0  0  0  0
   -8.7734   -3.5796   -0.4341 H   0  0  0  0  0  0  0  0  0  0  0  0
   -7.7270   -3.1026   -2.2811 C   0  0  0  0  0  0  0  0  0  0  0  0
   -8.1961   -3.9153   -2.8550 H   0  0  0  0  0  0  0  0  0  0  0  0
   -6.7987   -2.2458   -2.8954 C   0  0  0  0  0  0  0  0  0  0  0  0
   -6.5434   -2.3791   -3.9576 H   0  0  0  0  0  0  0  0  0  0  0  0
   -6.2044   -1.2045   -2.1711 C   0  0  0  0  0  0  0  0  0  0  0  0
   -5.4897   -0.5241   -2.6564 H   0  0  0  0  0  0  0  0  0  0  0  0
    1.9711    0.3246   -0.2536 N   0  0  0  0  0  2  0  0  0  0  0  0
    4.6478    0.6293   -0.3927 N   0  0  0  0  0  2  0  0  0  0  0  0
   -5.9224    0.0354   -0.0635 N   0  0  0  0  0  0  0  0  0  0  0  0
  1  2  1  0  0  0  0
  3 20  1  0  0  0  0
  3  1  2  0  0  0  0
  4  3  1  0  0  0  0
  5  4  1  0  0  0  0
  6  4  2  0  0  0  0
  6 19  1  0  0  0  0
  7  6  1  0  0  0  0
  8  7  1  0  0  0  0
  9  7  2  0  0  0  0
  9 11  1  0  0  0  0
 10  9  1  0  0  0  0
 11 18  1  0  0  0  0
 12 11  2  0  0  0  0
 12 14  1  0  0  0  0
 13 12  1  0  0  0  0
 14 16  2  0  0  0  0
 15 14  1  0  0  0  0
 16 53  1  0  0  0  0
 16 17  1  0  0  0  0
 18 19  2  0  0  0  0
 18 53  1  0  0  0  0
 19 52  1  0  0  0  0
 20 21  1  0  0  0  0
 21 23  2  0  0  0  0
 21 22  1  0  0  0  0
 23 24  1  0  0  0  0
 25 54  1  0  0  0  0
 25 23  1  0  0  0  0
 26 25  2  0  0  0  0
 27 26  1  0  0  0  0
 28 26  1  0  0  0  0
 28 20  2  0  0  0  0
 29 28  1  0  0  0  0
 30 31  1  0  0  0  0
 31 32  1  0  0  0  0
 31 33  2  0  0  0  0
 33 34  1  0  0  0  0
 35 33  1  0  0  0  0
 35 36  1  0  0  0  0
 37 35  2  0  0  0  0
 38 37  1  0  0  0  0
 39 30  2  0  0  0  0
 39 37  1  0  0  0  0
 40 39  1  0  0  0  0
 41 42  1  0  0  0  0
 41 54  1  0  0  0  0
 42 43  1  0  0  0  0
 44 45  1  0  0  0  0
 44 42  2  0  0  0  0
 46 44  1  0  0  0  0
 47 46  1  0  0  0  0
 48 46  2  0  0  0  0
 48 50  1  0  0  0  0
 49 48  1  0  0  0  0
 50 41  2  0  0  0  0
 51 50  1  0  0  0  0
 52  1  1  0  0  0  0
 54 30  1  0  0  0  0
M  END
