3,4
 OpenBabel05122313053D

 20 21  0  0  0  0  0  0  0  0999 V2000
   -2.7278    4.5423   -2.7826 Cl  0  0  0  0  0  0  0  0  0  0  0  0
   -5.9852   -2.4554   -1.7530 Cl  0  0  0  0  0  0  0  0  0  0  0  0
   -0.5453    0.8749   -1.1740 N   0  0  0  0  0  2  0  0  0  0  0  0
   -1.6701   -1.4486   -0.8544 N   0  0  0  0  0  2  0  0  0  0  0  0
   -3.8749   -0.7538   -1.5499 C   0  0  0  0  0  0  0  0  0  0  0  0
   -4.5766    0.0410   -1.8294 H   0  0  0  0  0  0  0  0  0  0  0  0
   -1.8910    3.1323   -2.2129 C   0  0  0  0  0  0  0  0  0  0  0  0
   -1.9009    0.8399   -1.4355 C   0  0  0  0  0  0  0  0  0  0  0  0
   -0.4935    3.1307   -2.0719 C   0  0  0  0  0  0  0  0  0  0  0  0
    0.1125    4.0040   -2.3461 H   0  0  0  0  0  0  0  0  0  0  0  0
   -2.5951    1.9617   -1.9150 C   0  0  0  0  0  0  0  0  0  0  0  0
   -3.6792    1.9171   -2.0759 H   0  0  0  0  0  0  0  0  0  0  0  0
   -4.3127   -2.0794   -1.4727 C   0  0  0  0  0  0  0  0  0  0  0  0
   -2.5297   -0.4719   -1.2609 C   0  0  0  0  0  0  0  0  0  0  0  0
   -3.3963   -3.0961   -1.1596 C   0  0  0  0  0  0  0  0  0  0  0  0
   -3.7057   -4.1489   -1.1259 H   0  0  0  0  0  0  0  0  0  0  0  0
   -2.0840   -2.7324   -0.8528 C   0  0  0  0  0  0  0  0  0  0  0  0
   -1.3202   -3.4639   -0.5418 H   0  0  0  0  0  0  0  0  0  0  0  0
    0.1242    1.9901   -1.5633 C   0  0  0  0  0  0  0  0  0  0  0  0
    1.2131    1.9581   -1.4498 H   0  0  0  0  0  0  0  0  0  0  0  0
  1  7  1  0  0  0  0
  2 13  1  0  0  0  0
  4 17  1  0  0  0  0
  5 13  2  0  0  0  0
  5 14  1  0  0  0  0
  6  5  1  0  0  0  0
  7  9  1  0  0  0  0
  7 11  2  0  0  0  0
  8 14  2  0  0  0  0
  8  3  1  0  0  0  0
  9 19  2  0  0  0  0
 10  9  1  0  0  0  0
 11  8  1  0  0  0  0
 12 11  1  0  0  0  0
 13 15  1  0  0  0  0
 14  4  1  0  0  0  0
 15 16  1  0  0  0  0
 15 17  2  0  0  0  0
 17 18  1  0  0  0  0
 19 20  1  0  0  0  0
 19  3  1  0  0  0  0
M  END
