1,2
 OpenBabel05122313053D

 33 34  0  0  1  0  0  0  0  0999 V2000
    0.8369    1.4077    0.7877 N   0  0  0  0  0  2  0  0  0  0  0  0
    0.7236   -1.5626    0.7343 N   0  0  0  0  0  2  0  0  0  0  0  0
    2.6051   -0.0464   -1.4528 N   0  0  0  0  0  0  0  0  0  0  0  0
    1.7920    1.8847   -0.0569 C   0  0  1  0  0  3  0  0  0  0  0  0
    1.7232   -1.9565   -0.1001 C   0  0  2  0  0  3  0  0  0  0  0  0
    1.9204    1.2483   -1.4283 C   0  0  0  0  0  0  0  0  0  0  0  0
    0.8939    1.1050   -1.8264 H   0  0  0  0  0  0  0  0  0  0  0  0
    2.4451    1.9571   -2.0969 H   0  0  0  0  0  0  0  0  0  0  0  0
    0.6992    1.9512    2.0209 C   0  0  0  0  0  0  0  0  0  0  0  0
   -0.1091    1.5318    2.6366 H   0  0  0  0  0  0  0  0  0  0  0  0
    0.5705   -2.1667    1.9372 C   0  0  0  0  0  0  0  0  0  0  0  0
   -0.2851   -1.8245    2.5366 H   0  0  0  0  0  0  0  0  0  0  0  0
    1.8226   -1.2897   -1.4549 C   0  0  0  0  0  0  0  0  0  0  0  0
    2.3144   -1.9920   -2.1545 H   0  0  0  0  0  0  0  0  0  0  0  0
    0.7963   -1.0602   -1.8056 H   0  0  0  0  0  0  0  0  0  0  0  0
    4.4894   -1.3239   -1.5325 O   0  0  0  0  0  0  0  0  0  0  0  0
    3.9821   -0.2008   -1.5178 C   0  0  0  0  0  0  0  0  0  0  0  0
    2.6254   -2.9605    0.2912 C   0  0  0  0  0  0  0  0  0  0  0  0
    3.4390   -3.2187   -0.3997 H   0  0  0  0  0  0  0  0  0  0  0  0
    1.4324   -3.1733    2.3766 C   0  0  0  0  0  0  0  0  0  0  0  0
    1.2673   -3.6345    3.3604 H   0  0  0  0  0  0  0  0  0  0  0  0
    2.4848   -3.5743    1.5409 C   0  0  0  0  0  0  0  0  0  0  0  0
    3.1848   -4.3623    1.8564 H   0  0  0  0  0  0  0  0  0  0  0  0
    4.8415    1.0508   -1.5747 C   0  0  0  0  0  0  0  0  0  0  0  0
    4.8151    1.5900   -0.6070 H   0  0  0  0  0  0  0  0  0  0  0  0
    4.5248    1.7593   -2.3659 H   0  0  0  0  0  0  0  0  0  0  0  0
    5.8780    0.7268   -1.7706 H   0  0  0  0  0  0  0  0  0  0  0  0
    1.5033    3.0000    2.4724 C   0  0  0  0  0  0  0  0  0  0  0  0
    1.3462    3.4069    3.4810 H   0  0  0  0  0  0  0  0  0  0  0  0
    2.6080    2.9596    0.3340 C   0  0  0  0  0  0  0  0  0  0  0  0
    3.3419    3.3588   -0.3799 H   0  0  0  0  0  0  0  0  0  0  0  0
    2.4714    3.5257    1.6074 C   0  0  0  0  0  0  0  0  0  0  0  0
    3.1057    4.3702    1.9149 H   0  0  0  0  0  0  0  0  0  0  0  0
  1  9  1  0  0  0  0
  2 11  1  0  0  0  0
  3  6  1  0  0  0  0
  4  6  1  6  0  0  0
  4 30  1  0  0  0  0
  4  1  1  0  0  0  0
  5 13  1  6  0  0  0
  5 18  1  0  0  0  0
  5  2  1  0  0  0  0
  7  6  1  0  0  0  0
  8  6  1  0  0  0  0
  9 28  2  0  0  0  0
  9 10  1  0  0  0  0
 11 20  2  0  0  0  0
 11 12  1  0  0  0  0
 13  3  1  0  0  0  0
 14 13  1  0  0  0  0
 15 13  1  0  0  0  0
 16 17  2  0  0  0  0
 17  3  1  0  0  0  0
 18 22  2  0  0  0  0
 19 18  1  0  0  0  0
 20 21  1  0  0  0  0
 22 23  1  0  0  0  0
 22 20  1  0  0  0  0
 24 17  1  0  0  0  0
 24 25  1  0  0  0  0
 26 24  1  0  0  0  0
 27 24  1  0  0  0  0
 28 29  1  0  0  0  0
 30 32  2  0  0  0  0
 31 30  1  0  0  0  0
 32 33  1  0  0  0  0
 32 28  1  0  0  0  0
M  END
