1,2
 OpenBabel05122313053D

 24 26  0  0  1  0  0  0  0  0999 V2000
    0.9148    1.7160   -0.1114 N   0  0  0  0  0  2  0  0  0  0  0  0
   -1.1943    0.2088   -0.0746 N   0  0  0  0  0  2  0  0  0  0  0  0
   -2.7225    1.7843    0.3386 N   0  0  0  0  0  0  0  0  0  0  0  0
    2.0587    2.4204   -0.2424 C   0  0  0  0  0  3  0  0  0  0  0  0
    2.9579    1.8448   -0.4991 H   0  0  0  0  0  0  0  0  0  0  0  0
    2.1069    3.8084   -0.0833 C   0  0  0  0  0  0  0  0  0  0  0  0
    3.0671    4.3308   -0.1944 H   0  0  0  0  0  0  0  0  0  0  0  0
    0.9231    4.5069    0.2048 C   0  0  0  0  0  0  0  0  0  0  0  0
    0.9314    5.5988    0.3327 H   0  0  0  0  0  0  0  0  0  0  0  0
   -0.2724    3.7907    0.3075 C   0  0  0  0  0  0  0  0  0  0  0  0
   -1.2211    4.3098    0.5055 H   0  0  0  0  0  0  0  0  0  0  0  0
   -0.2504    2.3959    0.1369 C   0  0  0  0  0  0  0  0  0  0  0  0
   -1.3946    1.5167    0.1555 C   0  0  2  0  0  3  0  0  0  0  0  0
   -3.4206    0.5926    0.2040 C   0  0  0  0  0  0  0  0  0  0  0  0
   -4.7883    0.2901    0.2871 C   0  0  0  0  0  0  0  0  0  0  0  0
   -5.5417    1.0623    0.4972 H   0  0  0  0  0  0  0  0  0  0  0  0
   -5.1482   -1.0453    0.0805 C   0  0  0  0  0  0  0  0  0  0  0  0
   -6.2097   -1.3277    0.1327 H   0  0  0  0  0  0  0  0  0  0  0  0
   -4.1815   -2.0430   -0.2061 C   0  0  0  0  0  0  0  0  0  0  0  0
   -4.5165   -3.0761   -0.3772 H   0  0  0  0  0  0  0  0  0  0  0  0
   -2.8201   -1.7426   -0.2868 C   0  0  0  0  0  0  0  0  0  0  0  0
   -2.0766   -2.5101   -0.5334 H   0  0  0  0  0  0  0  0  0  0  0  0
   -2.4352   -0.4065   -0.0684 C   0  0  0  0  0  0  0  0  0  0  0  0
   -3.1333    2.7005    0.5184 H   0  0  0  0  0  0  0  0  0  0  0  0
  1 12  1  0  0  0  0
  2 23  1  0  0  0  0
  2 13  1  0  0  0  0
  3 24  1  0  0  0  0
  4  1  1  0  0  0  0
  4  6  1  0  0  0  0
  5  4  1  0  0  0  0
  6  8  2  0  0  0  0
  7  6  1  0  0  0  0
  8 10  1  0  0  0  0
  8  9  1  0  0  0  0
 10 11  1  0  0  0  0
 12 10  2  0  0  0  0
 13 12  1  6  0  0  0
 13  3  1  0  0  0  0
 14 15  1  0  0  0  0
 14  3  1  0  0  0  0
 15 16  1  0  0  0  0
 17 18  1  0  0  0  0
 17 15  2  0  0  0  0
 19 17  1  0  0  0  0
 20 19  1  0  0  0  0
 21 19  2  0  0  0  0
 21 23  1  0  0  0  0
 22 21  1  0  0  0  0
 23 14  2  0  0  0  0
M  END
