1,5
 OpenBabel05122313053D

 52 56  0  0  1  0  0  0  0  0999 V2000
   -0.1690   -1.6124   -0.1230 N   0  0  0  0  0  2  0  0  0  0  0  0
   -2.3468   -2.4438    0.3535 N   0  0  0  0  0  0  0  0  0  0  0  0
   -4.1267   -1.0261    0.8528 N   0  0  0  0  0  0  0  0  0  0  0  0
    0.4137    0.6299    0.0417 N   0  0  0  0  0  0  0  0  0  0  0  0
    1.7130    0.2298    0.1355 N   0  0  0  0  0  2  0  0  0  0  0  0
   -1.0675   -2.5988    0.0518 C   0  0  0  0  0  3  0  0  0  0  0  0
   -0.6770   -3.6244   -0.0645 H   0  0  0  0  0  0  0  0  0  0  0  0
   -2.7990   -1.1797    0.5850 C   0  0  0  0  0  0  0  0  0  0  0  0
   -1.8872   -0.0821    0.5676 C   0  0  0  0  0  0  0  0  0  0  0  0
   -2.1727    0.9289    0.8653 H   0  0  0  0  0  0  0  0  0  0  0  0
   -0.5902   -0.3616    0.1528 C   0  0  0  0  0  0  0  0  0  0  0  0
   -5.0463   -2.1672    0.8307 C   0  0  0  0  0  0  0  0  0  0  0  0
   -5.6033   -2.1767    1.7952 H   0  0  0  0  0  0  0  0  0  0  0  0
   -4.4382   -3.0863    0.7660 H   0  0  0  0  0  0  0  0  0  0  0  0
   -6.0277   -2.0440   -0.3416 C   0  0  0  0  0  0  0  0  0  0  0  0
   -6.7480   -2.8873   -0.3069 H   0  0  0  0  0  0  0  0  0  0  0  0
   -5.4590   -2.1455   -1.2913 H   0  0  0  0  0  0  0  0  0  0  0  0
   -6.7612   -0.6964   -0.3102 C   0  0  0  0  0  0  0  0  0  0  0  0
   -7.4132   -0.5833   -1.2005 H   0  0  0  0  0  0  0  0  0  0  0  0
   -7.4338   -0.6667    0.5765 H   0  0  0  0  0  0  0  0  0  0  0  0
   -5.7657    0.4675   -0.2213 C   0  0  0  0  0  0  0  0  0  0  0  0
   -5.1741    0.5383   -1.1601 H   0  0  0  0  0  0  0  0  0  0  0  0
   -6.2922    1.4368   -0.0987 H   0  0  0  0  0  0  0  0  0  0  0  0
   -4.7926    0.2700    0.9503 C   0  0  0  0  0  0  0  0  0  0  0  0
   -4.0518    1.0876    0.9804 H   0  0  0  0  0  0  0  0  0  0  0  0
   -5.3508    0.3021    1.9137 H   0  0  0  0  0  0  0  0  0  0  0  0
    0.3104    2.0130    0.0117 C   0  0  1  0  0  3  0  0  0  0  0  0
    1.6097    2.4918    0.1231 C   0  0  0  0  0  0  0  0  0  0  0  0
    1.9144    3.5417    0.0770 H   0  0  0  0  0  0  0  0  0  0  0  0
    2.4597    1.3450    0.1819 C   0  0  0  0  0  0  0  0  0  0  0  0
   -0.9476    2.7478   -0.2170 C   0  0  0  0  0  0  0  0  0  0  0  0
   -1.7626    2.4501   -1.3336 C   0  0  0  0  0  0  0  0  0  0  0  0
   -1.4459    1.6704   -2.0423 H   0  0  0  0  0  0  0  0  0  0  0  0
   -2.9633    3.1418   -1.5354 C   0  0  0  0  0  0  0  0  0  0  0  0
   -3.5890    2.9035   -2.4088 H   0  0  0  0  0  0  0  0  0  0  0  0
   -3.3626    4.1446   -0.6343 C   0  0  0  0  0  0  0  0  0  0  0  0
   -4.3065    4.6867   -0.7956 H   0  0  0  0  0  0  0  0  0  0  0  0
   -2.5477    4.4611    0.4638 C   0  0  0  0  0  0  0  0  0  0  0  0
   -2.8510    5.2509    1.1674 H   0  0  0  0  0  0  0  0  0  0  0  0
   -1.3454    3.7680    0.6728 C   0  0  0  0  0  0  0  0  0  0  0  0
   -0.7125    3.9996    1.5426 H   0  0  0  0  0  0  0  0  0  0  0  0
    3.9260    1.3185    0.2786 C   0  0  0  0  0  0  0  0  0  0  0  0
    4.6804    0.2746   -0.3020 C   0  0  0  0  0  0  0  0  0  0  0  0
    4.1769   -0.5119   -0.8896 H   0  0  0  0  0  0  0  0  0  0  0  0
    6.0764    0.2748   -0.1846 C   0  0  0  0  0  0  0  0  0  0  0  0
    6.6532   -0.5412   -0.6451 H   0  0  0  0  0  0  0  0  0  0  0  0
    6.7354    1.3079    0.5005 C   0  0  0  0  0  0  0  0  0  0  0  0
    7.8324    1.3006    0.5898 H   0  0  0  0  0  0  0  0  0  0  0  0
    5.9909    2.3553    1.0681 C   0  0  0  0  0  0  0  0  0  0  0  0
    6.5008    3.1678    1.6075 H   0  0  0  0  0  0  0  0  0  0  0  0
    4.5953    2.3631    0.9562 C   0  0  0  0  0  0  0  0  0  0  0  0
    4.0129    3.1731    1.4215 H   0  0  0  0  0  0  0  0  0  0  0  0
  1  6  1  0  0  0  0
  1 11  1  0  0  0  0
  2  8  2  0  0  0  0
  3 24  1  0  0  0  0
  4  5  1  0  0  0  0
  4 11  1  0  0  0  0
  5 30  1  0  0  0  0
  6  2  1  0  0  0  0
  7  6  1  0  0  0  0
  8  3  1  0  0  0  0
  9  8  1  0  0  0  0
  9 10  1  0  0  0  0
 11  9  2  0  0  0  0
 12  3  1  0  0  0  0
 12 13  1  0  0  0  0
 14 12  1  0  0  0  0
 15 18  1  0  0  0  0
 15 16  1  0  0  0  0
 15 12  1  0  0  0  0
 17 15  1  0  0  0  0
 18 21  1  0  0  0  0
 18 20  1  0  0  0  0
 19 18  1  0  0  0  0
 21 23  1  0  0  0  0
 21 24  1  0  0  0  0
 22 21  1  0  0  0  0
 24 25  1  0  0  0  0
 24 26  1  0  0  0  0
 27 31  1  6  0  0  0
 27  4  1  0  0  0  0
 27 28  1  0  0  0  0
 28 30  2  0  0  0  0
 29 28  1  0  0  0  0
 30 42  1  0  0  0  0
 31 40  1  0  0  0  0
 32 31  2  0  0  0  0
 33 32  1  0  0  0  0
 34 32  1  0  0  0  0
 34 36  2  0  0  0  0
 35 34  1  0  0  0  0
 36 38  1  0  0  0  0
 37 36  1  0  0  0  0
 38 40  2  0  0  0  0
 38 39  1  0  0  0  0
 40 41  1  0  0  0  0
 42 51  1  0  0  0  0
 43 45  1  0  0  0  0
 43 42  2  0  0  0  0
 44 43  1  0  0  0  0
 45 47  2  0  0  0  0
 46 45  1  0  0  0  0
 47 48  1  0  0  0  0
 47 49  1  0  0  0  0
 49 50  1  0  0  0  0
 51 49  2  0  0  0  0
 51 52  1  0  0  0  0
M  END
