3,4
 OpenBabel05122313053D

 49 50  0  0  0  0  0  0  0  0999 V2000
   -2.5590   -1.5211   -0.8788 O   0  0  0  0  0  0  0  0  0  0  0  0
   -2.7473   -2.4815   -0.8204 H   0  0  0  0  0  0  0  0  0  0  0  0
   -1.7068    0.7246    0.0846 N   0  0  0  0  0  2  0  0  0  0  0  0
    0.8486    0.4348    0.1592 N   0  0  0  0  0  2  0  0  0  0  0  0
   -3.1339    3.0257    0.4906 C   0  0  0  0  0  0  0  0  0  0  0  0
   -3.7138    3.9469    0.6461 H   0  0  0  0  0  0  0  0  0  0  0  0
   -3.6274   -0.7523   -0.2023 C   0  0  0  0  0  0  0  0  0  0  0  0
   -1.7325    3.0587    0.5828 C   0  0  0  0  0  0  0  0  0  0  0  0
   -1.2040    3.9944    0.8104 H   0  0  0  0  0  0  0  0  0  0  0  0
    1.3578    2.7928    0.7482 C   0  0  0  0  0  0  0  0  0  0  0  0
    2.3864    2.4326    0.9237 H   0  0  0  0  0  0  0  0  0  0  0  0
    1.0003    3.3367    1.6454 H   0  0  0  0  0  0  0  0  0  0  0  0
    1.3832    3.5203   -0.0907 H   0  0  0  0  0  0  0  0  0  0  0  0
    2.2272    0.0661    0.1372 C   0  0  0  0  0  0  0  0  0  0  0  0
   -3.8013    1.8223    0.2037 C   0  0  0  0  0  0  0  0  0  0  0  0
   -4.8977    1.7948    0.1401 H   0  0  0  0  0  0  0  0  0  0  0  0
    4.8894   -0.7383    0.0993 C   0  0  0  0  0  0  0  0  0  0  0  0
    5.9425   -1.0553    0.0833 H   0  0  0  0  0  0  0  0  0  0  0  0
   -3.0497    0.6529    0.0037 C   0  0  0  0  0  0  0  0  0  0  0  0
   -1.0209    1.8690    0.3689 C   0  0  0  0  0  0  0  0  0  0  0  0
    0.4379    1.6647    0.4181 C   0  0  0  0  0  0  0  0  0  0  0  0
    1.7190    0.1116    3.4558 C   0  0  0  0  0  0  0  0  0  0  0  0
    1.1129   -0.2187    4.3227 H   0  0  0  0  0  0  0  0  0  0  0  0
    1.2231    1.0064    3.0268 H   0  0  0  0  0  0  0  0  0  0  0  0
    2.7087    0.4333    3.8369 H   0  0  0  0  0  0  0  0  0  0  0  0
    2.7303   -0.6735    1.2406 C   0  0  0  0  0  0  0  0  0  0  0  0
    1.8610   -1.0201    2.4267 C   0  0  0  0  0  0  0  0  0  0  0  0
    0.8568   -1.3321    2.0654 H   0  0  0  0  0  0  0  0  0  0  0  0
    2.2944   -1.9111    2.9234 H   0  0  0  0  0  0  0  0  0  0  0  0
   -3.9008   -1.3819    1.1707 C   0  0  0  0  0  0  0  0  0  0  0  0
   -2.9773   -1.4080    1.7826 H   0  0  0  0  0  0  0  0  0  0  0  0
   -4.2787   -2.4176    1.0469 H   0  0  0  0  0  0  0  0  0  0  0  0
   -4.6716   -0.8068    1.7192 H   0  0  0  0  0  0  0  0  0  0  0  0
   -4.8494   -0.7643   -1.1169 C   0  0  0  0  0  0  0  0  0  0  0  0
   -4.6146   -0.3091   -2.0975 H   0  0  0  0  0  0  0  0  0  0  0  0
   -5.6967   -0.2195   -0.6573 H   0  0  0  0  0  0  0  0  0  0  0  0
   -5.1857   -1.8071   -1.2812 H   0  0  0  0  0  0  0  0  0  0  0  0
    4.0820   -1.0491    1.2028 C   0  0  0  0  0  0  0  0  0  0  0  0
    4.4996   -1.6125    2.0513 H   0  0  0  0  0  0  0  0  0  0  0  0
    3.0068    0.3644   -1.0102 C   0  0  0  0  0  0  0  0  0  0  0  0
    2.4413    1.0483   -2.2378 C   0  0  0  0  0  0  0  0  0  0  0  0
    2.5537    0.3464   -3.0923 H   0  0  0  0  0  0  0  0  0  0  0  0
    1.3483    1.1976   -2.1312 H   0  0  0  0  0  0  0  0  0  0  0  0
    4.3514   -0.0496   -0.9941 C   0  0  0  0  0  0  0  0  0  0  0  0
    4.9818    0.1572   -1.8724 H   0  0  0  0  0  0  0  0  0  0  0  0
    3.1226    2.3786   -2.5900 C   0  0  0  0  0  0  0  0  0  0  0  0
    2.6759    2.8199   -3.5027 H   0  0  0  0  0  0  0  0  0  0  0  0
    4.2051    2.2435   -2.7836 H   0  0  0  0  0  0  0  0  0  0  0  0
    3.0300    3.1202   -1.7709 H   0  0  0  0  0  0  0  0  0  0  0  0
  1  2  1  0  0  0  0
  1  7  1  0  0  0  0
  3 20  1  0  0  0  0
  4 21  1  0  0  0  0
  5  8  2  0  0  0  0
  5  6  1  0  0  0  0
  7 19  1  0  0  0  0
  7 30  1  0  0  0  0
  8  9  1  0  0  0  0
 10 11  1  0  0  0  0
 10 12  1  0  0  0  0
 13 10  1  0  0  0  0
 14  4  1  0  0  0  0
 14 26  1  0  0  0  0
 15  5  1  0  0  0  0
 16 15  1  0  0  0  0
 17 38  1  0  0  0  0
 18 17  1  0  0  0  0
 19  3  1  0  0  0  0
 19 15  2  0  0  0  0
 20 21  2  0  0  0  0
 20  8  1  0  0  0  0
 21 10  1  0  0  0  0
 22 25  1  0  0  0  0
 22 23  1  0  0  0  0
 24 22  1  0  0  0  0
 26 27  1  0  0  0  0
 27 29  1  0  0  0  0
 27 22  1  0  0  0  0
 28 27  1  0  0  0  0
 30 33  1  0  0  0  0
 30 31  1  0  0  0  0
 32 30  1  0  0  0  0
 34 36  1  0  0  0  0
 34  7  1  0  0  0  0
 35 34  1  0  0  0  0
 37 34  1  0  0  0  0
 38 26  2  0  0  0  0
 38 39  1  0  0  0  0
 40 44  1  0  0  0  0
 40 14  2  0  0  0  0
 41 43  1  0  0  0  0
 41 40  1  0  0  0  0
 42 41  1  0  0  0  0
 44 17  2  0  0  0  0
 45 44  1  0  0  0  0
 46 41  1  0  0  0  0
 46 49  1  0  0  0  0
 47 46  1  0  0  0  0
 48 46  1  0  0  0  0
M  END
