2,3
 OpenBabel05122313053D

 34 36  0  0  1  0  0  0  0  0999 V2000
   -6.7527    0.3499   -0.7098 Br  0  0  0  0  0  0  0  0  0  0  0  0
    2.7779    0.6172   -1.0897 N   0  0  0  0  0  2  0  0  0  0  0  0
    1.1361    1.1077    0.9228 N   0  0  0  0  0  2  0  0  0  0  0  0
    0.3631    1.5653    1.9196 N   0  0  0  0  0  0  0  0  0  0  0  0
    3.5776    0.2985   -2.1286 C   0  0  0  0  0  3  0  0  0  0  0  0
    3.5091   -0.7373   -2.4908 H   0  0  0  0  0  0  0  0  0  0  0  0
    4.4547    1.2165   -2.7136 C   0  0  0  0  0  0  0  0  0  0  0  0
    5.0858    0.9021   -3.5562 H   0  0  0  0  0  0  0  0  0  0  0  0
    4.5111    2.5222   -2.2010 C   0  0  0  0  0  0  0  0  0  0  0  0
    5.1944    3.2673   -2.6340 H   0  0  0  0  0  0  0  0  0  0  0  0
    3.6838    2.8609   -1.1267 C   0  0  0  0  0  0  0  0  0  0  0  0
    3.6981    3.8712   -0.6950 H   0  0  0  0  0  0  0  0  0  0  0  0
    2.8248    1.8873   -0.5872 C   0  0  0  0  0  0  0  0  0  0  0  0
    1.9071    2.1444    0.5144 C   0  0  1  0  0  3  0  0  0  0  0  0
    1.6043    3.2996    1.2782 C   0  0  0  0  0  0  0  0  0  0  0  0
    2.0492    4.2957    1.2036 H   0  0  0  0  0  0  0  0  0  0  0  0
    0.6104    2.8882    2.1604 C   0  0  0  0  0  0  0  0  0  0  0  0
    0.0583    3.4285    2.9361 H   0  0  0  0  0  0  0  0  0  0  0  0
   -0.6986    0.7430    2.4862 C   0  0  0  0  0  0  0  0  0  0  0  0
   -1.0685    1.2919    3.3765 H   0  0  0  0  0  0  0  0  0  0  0  0
   -0.2550   -0.2054    2.8454 H   0  0  0  0  0  0  0  0  0  0  0  0
   -1.8184    0.4785    1.4966 C   0  0  0  0  0  0  0  0  0  0  0  0
   -2.5170   -0.7416    1.5373 C   0  0  0  0  0  0  0  0  0  0  0  0
   -2.2275   -1.5145    2.2642 H   0  0  0  0  0  0  0  0  0  0  0  0
   -3.5513   -0.9949    0.6289 C   0  0  0  0  0  0  0  0  0  0  0  0
   -4.0820   -1.9588    0.6638 H   0  0  0  0  0  0  0  0  0  0  0  0
   -3.9041   -0.0427   -0.3468 C   0  0  0  0  0  0  0  0  0  0  0  0
   -3.2073    1.1815   -0.3766 C   0  0  0  0  0  0  0  0  0  0  0  0
   -3.4702    1.9361   -1.1336 H   0  0  0  0  0  0  0  0  0  0  0  0
   -2.1777    1.4401    0.5333 C   0  0  0  0  0  0  0  0  0  0  0  0
   -1.6311    2.3940    0.4745 H   0  0  0  0  0  0  0  0  0  0  0  0
   -4.9880   -0.3268   -1.3352 C   0  0  0  0  0  0  0  0  0  0  0  0
   -5.1370   -1.4087   -1.4981 H   0  0  0  0  0  0  0  0  0  0  0  0
   -4.8175    0.1757   -2.3037 H   0  0  0  0  0  0  0  0  0  0  0  0
  2 13  1  0  0  0  0
  3  4  1  0  0  0  0
  4 17  1  0  0  0  0
  4 19  1  0  0  0  0
  5  2  1  0  0  0  0
  6  5  1  0  0  0  0
  7  9  2  0  0  0  0
  7  5  1  0  0  0  0
  8  7  1  0  0  0  0
  9 11  1  0  0  0  0
 10  9  1  0  0  0  0
 11 12  1  0  0  0  0
 11 13  2  0  0  0  0
 14 13  1  6  0  0  0
 14  3  1  0  0  0  0
 14 15  1  0  0  0  0
 15 17  2  0  0  0  0
 16 15  1  0  0  0  0
 17 18  1  0  0  0  0
 19 21  1  0  0  0  0
 19 20  1  0  0  0  0
 22 23  1  0  0  0  0
 22 19  1  0  0  0  0
 23 24  1  0  0  0  0
 25 26  1  0  0  0  0
 25 23  2  0  0  0  0
 27 25  1  0  0  0  0
 28 27  2  0  0  0  0
 28 30  1  0  0  0  0
 29 28  1  0  0  0  0
 30 22  2  0  0  0  0
 31 30  1  0  0  0  0
 32  1  1  0  0  0  0
 32 27  1  0  0  0  0
 33 32  1  0  0  0  0
 34 32  1  0  0  0  0
M  END
