1,9
 OpenBabel05122313053D

 49 50  0  0  1  0  0  0  0  0999 V2000
   -1.3104   -0.3300    0.3181 N   0  0  0  0  0  2  0  0  0  0  0  0
   -0.8674    0.8543   -0.0110 C   0  0  0  0  0  0  0  0  0  0  0  0
   -1.5023    1.7512    0.0980 H   0  0  0  0  0  0  0  0  0  0  0  0
    0.4903    0.9491   -0.5265 C   0  0  0  0  0  0  0  0  0  0  0  0
    1.0327    2.2940   -0.9153 C   0  0  0  0  0  0  0  0  0  0  0  0
    1.6331    2.2515   -1.8409 H   0  0  0  0  0  0  0  0  0  0  0  0
    1.7050    2.6852   -0.1227 H   0  0  0  0  0  0  0  0  0  0  0  0
    0.2036    3.0128   -1.0567 H   0  0  0  0  0  0  0  0  0  0  0  0
    1.1300   -0.2028   -0.5770 N   0  0  0  0  0  2  0  0  0  0  0  0
    2.5154   -0.3437   -1.0790 C   0  0  1  0  0  0  0  0  0  0  0  0
    2.8097   -1.3591   -0.7293 H   0  0  0  0  0  0  0  0  0  0  0  0
    2.5040   -0.4238   -2.6084 C   0  0  0  0  0  0  0  0  0  0  0  0
    1.8189   -1.2359   -2.9175 H   0  0  0  0  0  0  0  0  0  0  0  0
    3.5171   -0.6766   -2.9768 H   0  0  0  0  0  0  0  0  0  0  0  0
    2.1800    0.5196   -3.0926 H   0  0  0  0  0  0  0  0  0  0  0  0
    3.4721    0.6515   -0.4440 C   0  0  0  0  0  0  0  0  0  0  0  0
    4.3435    1.4653   -1.1881 C   0  0  0  0  0  0  0  0  0  0  0  0
    4.3389    1.4190   -2.2871 H   0  0  0  0  0  0  0  0  0  0  0  0
    5.2231    2.3523   -0.5472 C   0  0  0  0  0  0  0  0  0  0  0  0
    5.8952    2.9791   -1.1548 H   0  0  0  0  0  0  0  0  0  0  0  0
    5.2619    2.4601    0.8555 C   0  0  0  0  0  0  0  0  0  0  0  0
    4.3886    1.6358    1.5990 C   0  0  0  0  0  0  0  0  0  0  0  0
    4.4008    1.6895    2.6995 H   0  0  0  0  0  0  0  0  0  0  0  0
    3.5181    0.7437    0.9645 C   0  0  0  0  0  0  0  0  0  0  0  0
    2.8551    0.1029    1.5675 H   0  0  0  0  0  0  0  0  0  0  0  0
    6.2173    3.3980    1.5486 C   0  0  0  0  0  0  0  0  0  0  0  0
    6.6748    4.1146    0.8394 H   0  0  0  0  0  0  0  0  0  0  0  0
    7.0436    2.8372    2.0354 H   0  0  0  0  0  0  0  0  0  0  0  0
    5.7114    3.9781    2.3471 H   0  0  0  0  0  0  0  0  0  0  0  0
   -2.6462   -0.5143    0.9340 C   0  0  1  0  0  0  0  0  0  0  0  0
   -2.9743   -1.5091    0.5624 H   0  0  0  0  0  0  0  0  0  0  0  0
   -2.4568   -0.6555    2.4491 C   0  0  0  0  0  0  0  0  0  0  0  0
   -1.8151   -1.5336    2.6510 H   0  0  0  0  0  0  0  0  0  0  0  0
   -3.4401   -0.8188    2.9315 H   0  0  0  0  0  0  0  0  0  0  0  0
   -1.9852    0.2455    2.8906 H   0  0  0  0  0  0  0  0  0  0  0  0
   -3.6333    0.5468    0.4844 C   0  0  0  0  0  0  0  0  0  0  0  0
   -4.1774    0.4595   -0.8153 C   0  0  0  0  0  0  0  0  0  0  0  0
   -3.8978   -0.3910   -1.4576 H   0  0  0  0  0  0  0  0  0  0  0  0
   -5.0614    1.4321   -1.2927 C   0  0  0  0  0  0  0  0  0  0  0  0
   -5.4749    1.3371   -2.3095 H   0  0  0  0  0  0  0  0  0  0  0  0
   -5.4412    2.5306   -0.4902 C   0  0  0  0  0  0  0  0  0  0  0  0
   -4.8980    2.6132    0.8056 C   0  0  0  0  0  0  0  0  0  0  0  0
   -5.1796    3.4572    1.4552 H   0  0  0  0  0  0  0  0  0  0  0  0
   -4.0085    1.6390    1.2876 C   0  0  0  0  0  0  0  0  0  0  0  0
   -3.6095    1.7352    2.3081 H   0  0  0  0  0  0  0  0  0  0  0  0
   -6.4159    3.5599   -1.0029 C   0  0  0  0  0  0  0  0  0  0  0  0
   -7.4439    3.1422   -1.0573 H   0  0  0  0  0  0  0  0  0  0  0  0
   -6.1527    3.8943   -2.0270 H   0  0  0  0  0  0  0  0  0  0  0  0
   -6.4534    4.4515   -0.3477 H   0  0  0  0  0  0  0  0  0  0  0  0
  1 30  1  0  0  0  0
  2  3  1  0  0  0  0
  2  1  1  0  0  0  0
  4  2  2  0  0  0  0
  5  4  1  0  0  0  0
  5  7  1  0  0  0  0
  6  5  1  0  0  0  0
  8  5  1  0  0  0  0
  9  4  1  0  0  0  0
 10 11  1  1  0  0  0
 10  9  1  0  0  0  0
 10 16  1  0  0  0  0
 12 10  1  0  0  0  0
 13 12  1  0  0  0  0
 14 12  1  0  0  0  0
 15 12  1  0  0  0  0
 16 24  1  0  0  0  0
 17 19  1  0  0  0  0
 17 16  2  0  0  0  0
 18 17  1  0  0  0  0
 19 21  2  0  0  0  0
 20 19  1  0  0  0  0
 21 26  1  0  0  0  0
 21 22  1  0  0  0  0
 22 23  1  0  0  0  0
 24 25  1  0  0  0  0
 24 22  2  0  0  0  0
 26 28  1  0  0  0  0
 26 29  1  0  0  0  0
 27 26  1  0  0  0  0
 30 31  1  6  0  0  0
 30 32  1  0  0  0  0
 32 33  1  0  0  0  0
 32 35  1  0  0  0  0
 32 34  1  0  0  0  0
 36 30  1  0  0  0  0
 36 44  1  0  0  0  0
 37 36  2  0  0  0  0
 38 37  1  0  0  0  0
 39 37  1  0  0  0  0
 39 41  2  0  0  0  0
 40 39  1  0  0  0  0
 41 42  1  0  0  0  0
 42 44  2  0  0  0  0
 42 43  1  0  0  0  0
 44 45  1  0  0  0  0
 46 41  1  0  0  0  0
 46 49  1  0  0  0  0
 47 46  1  0  0  0  0
 48 46  1  0  0  0  0
M  END
