1,4
 OpenBabel05122313053D

 30 30  0  0  1  0  0  0  0  0999 V2000
   -1.6720    0.9606    0.3821 N   0  0  0  0  0  0  0  0  0  0  0  0
   -1.8865    1.9546    1.4055 O   0  0  0  0  0  0  0  0  0  0  0  0
   -1.1826    1.6370    2.6007 C   0  0  0  0  0  0  0  0  0  0  0  0
   -1.0396   -1.7246    0.3735 N   0  0  0  0  0  0  0  0  0  0  0  0
   -1.3129   -2.2128    1.7083 O   0  0  0  0  0  0  0  0  0  0  0  0
   -0.1152   -2.3463    2.4697 C   0  0  0  0  0  0  0  0  0  0  0  0
   -2.8012   -0.0358    0.4611 C   0  0  2  0  0  0  0  0  0  0  0  0
   -2.3674   -1.3625   -0.1881 C   0  0  1  0  0  0  0  0  0  0  0  0
   -2.3213   -1.3081   -1.7197 C   0  0  0  0  0  0  0  0  0  0  0  0
   -3.6520   -0.7896   -2.2815 C   0  0  0  0  0  0  0  0  0  0  0  0
   -4.0184    0.5757   -1.6852 C   0  0  0  0  0  0  0  0  0  0  0  0
   -4.0922    0.5120   -0.1534 C   0  0  0  0  0  0  0  0  0  0  0  0
   -1.4386    2.4585    3.2966 H   0  0  0  0  0  0  0  0  0  0  0  0
   -0.0860    1.6143    2.4223 H   0  0  0  0  0  0  0  0  0  0  0  0
   -1.5138    0.6688    3.0414 H   0  0  0  0  0  0  0  0  0  0  0  0
    0.5788   -3.0930    2.0255 H   0  0  0  0  0  0  0  0  0  0  0  0
   -0.4571   -2.6893    3.4648 H   0  0  0  0  0  0  0  0  0  0  0  0
    0.4185   -1.3735    2.5495 H   0  0  0  0  0  0  0  0  0  0  0  0
   -1.7597    1.5405   -0.4695 H   0  0  0  0  0  0  0  0  0  0  0  0
   -0.6151   -2.5197   -0.1485 H   0  0  0  0  0  0  0  0  0  0  0  0
   -2.9277   -0.2212    1.5446 H   0  0  0  0  0  0  0  0  0  0  0  0
   -3.0911   -2.1438    0.1335 H   0  0  0  0  0  0  0  0  0  0  0  0
   -1.4822   -0.6470   -2.0320 H   0  0  0  0  0  0  0  0  0  0  0  0
   -2.0894   -2.3172   -2.1198 H   0  0  0  0  0  0  0  0  0  0  0  0
   -4.4626   -1.5174   -2.0533 H   0  0  0  0  0  0  0  0  0  0  0  0
   -3.5884   -0.7286   -3.3864 H   0  0  0  0  0  0  0  0  0  0  0  0
   -3.2620    1.3295   -2.0035 H   0  0  0  0  0  0  0  0  0  0  0  0
   -4.9843    0.9356   -2.0934 H   0  0  0  0  0  0  0  0  0  0  0  0
   -4.9291   -0.1524    0.1509 H   0  0  0  0  0  0  0  0  0  0  0  0
   -4.2987    1.5052    0.2947 H   0  0  0  0  0  0  0  0  0  0  0  0
  1  7  1  0  0  0  0
  1  2  1  0  0  0  0
  2  3  1  0  0  0  0
  3 15  1  0  0  0  0
  3 13  1  0  0  0  0
  4  5  1  0  0  0  0
  5  6  1  0  0  0  0
  6 18  1  0  0  0  0
  6 17  1  0  0  0  0
  7 21  1  1  0  0  0
  8 22  1  1  0  0  0
  8  4  1  0  0  0  0
  8  7  1  0  0  0  0
  9  8  1  0  0  0  0
 10 25  1  0  0  0  0
 10  9  1  0  0  0  0
 10 11  1  0  0  0  0
 11 12  1  0  0  0  0
 12 29  1  0  0  0  0
 12 30  1  0  0  0  0
 12  7  1  0  0  0  0
 14  3  1  0  0  0  0
 16  6  1  0  0  0  0
 19  1  1  0  0  0  0
 20  4  1  0  0  0  0
 23  9  1  0  0  0  0
 24  9  1  0  0  0  0
 26 10  1  0  0  0  0
 27 11  1  0  0  0  0
 28 11  1  0  0  0  0
M  END
