3,5
 OpenBabel05122313053D

 43 48  0  0  0  0  0  0  0  0999 V2000
    3.6915    2.1057   -1.1471 O   0  0  0  0  0  0  0  0  0  0  0  0
    3.8615   -2.5088   -1.3379 O   0  0  0  0  0  0  0  0  0  0  0  0
   -1.6141    0.9437   -0.4403 N   0  0  0  0  0  2  0  0  0  0  0  0
    4.1066   -0.1835   -1.3186 N   0  0  0  0  0  0  0  0  0  0  0  0
   -1.6538   -1.7365   -0.5016 N   0  0  0  0  0  2  0  0  0  0  0  0
   -0.4616    0.2734   -0.6672 C   0  0  0  0  0  0  0  0  0  0  0  0
   -1.2598    2.2898   -0.4025 C   0  0  0  0  0  0  0  0  0  0  0  0
   -2.0746    3.4146   -0.1739 C   0  0  0  0  0  0  0  0  0  0  0  0
   -3.1520    3.2907    0.0079 H   0  0  0  0  0  0  0  0  0  0  0  0
   -1.4729    4.6798   -0.1752 C   0  0  0  0  0  0  0  0  0  0  0  0
   -2.0950    5.5708    0.0015 H   0  0  0  0  0  0  0  0  0  0  0  0
   -0.0835    4.8398   -0.3987 C   0  0  0  0  0  0  0  0  0  0  0  0
    0.3500    5.8511   -0.3935 H   0  0  0  0  0  0  0  0  0  0  0  0
    0.7441    3.7325   -0.6221 C   0  0  0  0  0  3  0  0  0  0  0  0
    1.8263    3.8361   -0.7912 H   0  0  0  0  0  0  0  0  0  0  0  0
    0.1672    2.4476   -0.6235 C   0  0  0  0  0  0  0  0  0  0  0  0
    0.6903    1.1098   -0.7932 C   0  0  0  0  0  0  0  0  0  0  0  0
    1.9011    0.4211   -0.9917 C   0  0  0  0  0  0  0  0  0  0  0  0
    3.2959    0.9460   -1.1532 C   0  0  0  0  0  0  0  0  0  0  0  0
    3.3628   -1.3913   -1.2460 C   0  0  0  0  0  0  0  0  0  0  0  0
    1.9554   -0.9897   -1.0491 C   0  0  0  0  0  0  0  0  0  0  0  0
    0.7997   -1.8228   -0.9038 C   0  0  0  0  0  0  0  0  0  0  0  0
    0.7361   -3.2414   -0.9027 C   0  0  0  0  0  0  0  0  0  0  0  0
    1.6568   -3.8228   -1.0514 H   0  0  0  0  0  0  0  0  0  0  0  0
   -0.5054   -3.8520   -0.7002 C   0  0  0  0  0  0  0  0  0  0  0  0
   -0.5913   -4.9482   -0.6904 H   0  0  0  0  0  0  0  0  0  0  0  0
   -1.6743   -3.0846   -0.4971 C   0  0  0  0  0  0  0  0  0  0  0  0
   -2.6509   -3.5582   -0.3202 H   0  0  0  0  0  0  0  0  0  0  0  0
   -0.4402   -1.1323   -0.7079 C   0  0  0  0  0  0  0  0  0  0  0  0
    5.5559   -0.1361   -1.4265 C   0  0  0  0  0  0  0  0  0  0  0  0
    5.8108    0.7862   -1.9838 H   0  0  0  0  0  0  0  0  0  0  0  0
    5.8617   -1.0184   -2.0216 H   0  0  0  0  0  0  0  0  0  0  0  0
    6.2413   -0.1455   -0.0728 C   0  0  0  0  0  0  0  0  0  0  0  0
    6.5649   -1.3658    0.5521 C   0  0  0  0  0  0  0  0  0  0  0  0
    6.3264   -2.3099    0.0379 H   0  0  0  0  0  0  0  0  0  0  0  0
    7.1654   -1.3760    1.8199 C   0  0  0  0  0  0  0  0  0  0  0  0
    7.4179   -2.3348    2.2984 H   0  0  0  0  0  0  0  0  0  0  0  0
    7.4444   -0.1668    2.4773 C   0  0  0  0  0  0  0  0  0  0  0  0
    7.9181   -0.1749    3.4711 H   0  0  0  0  0  0  0  0  0  0  0  0
    7.1154    1.0528    1.8639 C   0  0  0  0  0  0  0  0  0  0  0  0
    7.3278    2.0033    2.3770 H   0  0  0  0  0  0  0  0  0  0  0  0
    6.5151    1.0637    0.5958 C   0  0  0  0  0  0  0  0  0  0  0  0
    6.2372    2.0154    0.1168 H   0  0  0  0  0  0  0  0  0  0  0  0
  2 20  2  0  0  0  0
  3  7  1  0  0  0  0
  4 20  1  0  0  0  0
  4 19  1  0  0  0  0
  5 27  1  0  0  0  0
  6  3  1  0  0  0  0
  7  8  2  0  0  0  0
  8  9  1  0  0  0  0
 10  8  1  0  0  0  0
 10 11  1  0  0  0  0
 12 13  1  0  0  0  0
 12 10  2  0  0  0  0
 14 12  1  0  0  0  0
 15 14  1  0  0  0  0
 16 14  1  0  0  0  0
 16  7  1  0  0  0  0
 17  6  1  0  0  0  0
 17 16  2  0  0  0  0
 18 17  1  0  0  0  0
 19  1  2  0  0  0  0
 19 18  1  0  0  0  0
 20 21  1  0  0  0  0
 21 18  2  0  0  0  0
 21 22  1  0  0  0  0
 22 23  2  0  0  0  0
 22 29  1  0  0  0  0
 23 25  1  0  0  0  0
 24 23  1  0  0  0  0
 25 26  1  0  0  0  0
 25 27  2  0  0  0  0
 27 28  1  0  0  0  0
 29  6  2  0  0  0  0
 29  5  1  0  0  0  0
 30  4  1  0  0  0  0
 30 33  1  0  0  0  0
 31 30  1  0  0  0  0
 32 30  1  0  0  0  0
 33 34  2  0  0  0  0
 33 42  1  0  0  0  0
 34 36  1  0  0  0  0
 35 34  1  0  0  0  0
 36 37  1  0  0  0  0
 36 38  2  0  0  0  0
 38 39  1  0  0  0  0
 40 41  1  0  0  0  0
 40 38  1  0  0  0  0
 42 40  2  0  0  0  0
 43 42  1  0  0  0  0
M  END
