1,2
 OpenBabel05122313053D

 48 48  0  0  1  0  0  0  0  0999 V2000
   -0.0560    1.4248    0.8793 N   0  0  0  0  0  2  0  0  0  0  0  0
    0.0363   -1.3545    0.9890 N   0  0  0  0  0  2  0  0  0  0  0  0
    1.1429    0.7694    0.6748 C   0  0  0  0  0  0  0  0  0  0  0  0
    1.1888   -0.6432    0.7334 C   0  0  0  0  0  0  0  0  0  0  0  0
    2.5151   -1.1501    0.2006 C   0  0  0  0  0  0  0  0  0  0  0  0
    2.3877   -1.6140   -0.8043 H   0  0  0  0  0  0  0  0  0  0  0  0
    2.9497   -1.9338    0.8503 H   0  0  0  0  0  0  0  0  0  0  0  0
    3.4082    0.1122    0.1395 C   0  0  2  0  0  0  0  0  0  0  0  0
    3.9244    0.1981    1.1229 H   0  0  0  0  0  0  0  0  0  0  0  0
    2.4200    1.2974    0.0400 C   0  0  0  0  0  0  0  0  0  0  0  0
    2.2364    1.5825   -1.0218 H   0  0  0  0  0  0  0  0  0  0  0  0
    2.8053    2.2037    0.5384 H   0  0  0  0  0  0  0  0  0  0  0  0
    4.4927    0.0813   -0.9530 C   0  0  0  0  0  0  0  0  0  0  0  0
    3.9645   -0.0112   -1.9314 H   0  0  0  0  0  0  0  0  0  0  0  0
    5.3075    1.3806   -0.9762 C   0  0  0  0  0  0  0  0  0  0  0  0
    6.0860    1.3506   -1.7653 H   0  0  0  0  0  0  0  0  0  0  0  0
    5.8228    1.5390   -0.0047 H   0  0  0  0  0  0  0  0  0  0  0  0
    4.6724    2.2684   -1.1676 H   0  0  0  0  0  0  0  0  0  0  0  0
    5.4145   -1.1347   -0.7966 C   0  0  0  0  0  0  0  0  0  0  0  0
    6.1888   -1.1550   -1.5901 H   0  0  0  0  0  0  0  0  0  0  0  0
    4.8570   -2.0912   -0.8501 H   0  0  0  0  0  0  0  0  0  0  0  0
    5.9401   -1.1063    0.1819 H   0  0  0  0  0  0  0  0  0  0  0  0
   -0.2696    2.6829    1.6185 C   0  0  0  0  0  0  0  0  0  0  0  0
   -1.6081    3.2873    1.1684 C   0  0  0  0  0  0  0  0  0  0  0  0
   -1.5572    3.6062    0.1092 H   0  0  0  0  0  0  0  0  0  0  0  0
   -1.8484    4.1762    1.7846 H   0  0  0  0  0  0  0  0  0  0  0  0
   -2.4281    2.5542    1.2826 H   0  0  0  0  0  0  0  0  0  0  0  0
   -0.3417    2.3061    3.1136 C   0  0  0  0  0  0  0  0  0  0  0  0
    0.5975    1.8084    3.4306 H   0  0  0  0  0  0  0  0  0  0  0  0
   -1.1843    1.6095    3.2893 H   0  0  0  0  0  0  0  0  0  0  0  0
   -0.4873    3.2100    3.7400 H   0  0  0  0  0  0  0  0  0  0  0  0
    0.8465    3.7209    1.3957 C   0  0  0  0  0  0  0  0  0  0  0  0
    1.8065    3.4012    1.8449 H   0  0  0  0  0  0  0  0  0  0  0  0
    0.5596    4.6762    1.8787 H   0  0  0  0  0  0  0  0  0  0  0  0
    1.0050    3.9198    0.3167 H   0  0  0  0  0  0  0  0  0  0  0  0
   -0.0322   -2.6498    1.6882 C   0  0  0  0  0  0  0  0  0  0  0  0
   -1.5138   -3.0442    1.7881 C   0  0  0  0  0  0  0  0  0  0  0  0
   -1.9603   -3.1410    0.7781 H   0  0  0  0  0  0  0  0  0  0  0  0
   -2.0936   -2.2794    2.3371 H   0  0  0  0  0  0  0  0  0  0  0  0
   -1.6183   -4.0175    2.3068 H   0  0  0  0  0  0  0  0  0  0  0  0
    0.5472   -2.4455    3.1016 C   0  0  0  0  0  0  0  0  0  0  0  0
    1.6170   -2.1567    3.0557 H   0  0  0  0  0  0  0  0  0  0  0  0
    0.4653   -3.3769    3.6973 H   0  0  0  0  0  0  0  0  0  0  0  0
   -0.0050   -1.6397    3.6238 H   0  0  0  0  0  0  0  0  0  0  0  0
    0.7319   -3.7725    0.9531 C   0  0  0  0  0  0  0  0  0  0  0  0
    0.3800   -3.8672   -0.0913 H   0  0  0  0  0  0  0  0  0  0  0  0
    0.5518   -4.7401    1.4632 H   0  0  0  0  0  0  0  0  0  0  0  0
    1.8245   -3.6051    0.9395 H   0  0  0  0  0  0  0  0  0  0  0  0
  1 23  1  0  0  0  0
  2 36  1  0  0  0  0
  3  4  2  0  0  0  0
  3  1  1  0  0  0  0
  4  2  1  0  0  0  0
  5  4  1  0  0  0  0
  5  7  1  0  0  0  0
  6  5  1  0  0  0  0
  8  5  1  0  0  0  0
  8  9  1  1  0  0  0
 10  8  1  0  0  0  0
 10 12  1  0  0  0  0
 10  3  1  0  0  0  0
 11 10  1  0  0  0  0
 13 19  1  0  0  0  0
 13  8  1  0  0  0  0
 14 13  1  0  0  0  0
 15 13  1  0  0  0  0
 15 17  1  0  0  0  0
 16 15  1  0  0  0  0
 18 15  1  0  0  0  0
 19 22  1  0  0  0  0
 20 19  1  0  0  0  0
 21 19  1  0  0  0  0
 23 28  1  0  0  0  0
 24 27  1  0  0  0  0
 24 23  1  0  0  0  0
 24 26  1  0  0  0  0
 25 24  1  0  0  0  0
 28 30  1  0  0  0  0
 28 29  1  0  0  0  0
 28 31  1  0  0  0  0
 32 23  1  0  0  0  0
 32 33  1  0  0  0  0
 32 34  1  0  0  0  0
 35 32  1  0  0  0  0
 36 37  1  0  0  0  0
 36 41  1  0  0  0  0
 37 40  1  0  0  0  0
 37 39  1  0  0  0  0
 38 37  1  0  0  0  0
 41 44  1  0  0  0  0
 41 43  1  0  0  0  0
 42 41  1  0  0  0  0
 45 47  1  0  0  0  0
 45 36  1  0  0  0  0
 46 45  1  0  0  0  0
 48 45  1  0  0  0  0
M  END
