1,2
 OpenBabel05122313053D

 15 14  0  0  1  0  0  0  0  0999 V2000
   -1.3337    0.0350   -1.6623 N   0  0  0  0  0  0  0  0  0  0  0  0
   -1.2935   -0.0087    1.1163 N   0  0  0  0  0  0  0  0  0  0  0  0
   -2.5812    0.3537   -0.9157 C   0  0  0  0  0  0  0  0  0  0  0  0
   -2.5732   -0.3805    0.4268 C   0  0  2  0  0  0  0  0  0  0  0  0
   -3.7873   -0.0701    1.2934 C   0  0  0  0  0  0  0  0  0  0  0  0
   -1.3588   -0.9232   -2.0520 H   0  0  0  0  0  0  0  0  0  0  0  0
   -1.1867    0.6989   -2.4368 H   0  0  0  0  0  0  0  0  0  0  0  0
   -3.4798    0.0786   -1.5040 H   0  0  0  0  0  0  0  0  0  0  0  0
   -2.5966    1.4505   -0.7503 H   0  0  0  0  0  0  0  0  0  0  0  0
   -2.4975   -1.4732    0.2418 H   0  0  0  0  0  0  0  0  0  0  0  0
   -1.0721   -0.6386    1.9069 H   0  0  0  0  0  0  0  0  0  0  0  0
   -1.3484    0.9525    1.5053 H   0  0  0  0  0  0  0  0  0  0  0  0
   -3.8786    1.0177    1.4917 H   0  0  0  0  0  0  0  0  0  0  0  0
   -3.7316   -0.6029    2.2627 H   0  0  0  0  0  0  0  0  0  0  0  0
   -4.7137   -0.4036    0.7865 H   0  0  0  0  0  0  0  0  0  0  0  0
  1  3  1  0  0  0  0
  2 12  1  0  0  0  0
  2 11  1  0  0  0  0
  3  9  1  0  0  0  0
  3  4  1  0  0  0  0
  4 10  1  6  0  0  0
  4  2  1  0  0  0  0
  4  5  1  0  0  0  0
  5 13  1  0  0  0  0
  5 14  1  0  0  0  0
  6  1  1  0  0  0  0
  7  1  1  0  0  0  0
  8  3  1  0  0  0  0
 15  5  1  0  0  0  0
M  END
