1,2
 OpenBabel05122313053D

 28 31  0  0  0  0  0  0  0  0999 V2000
    1.3292    0.6994   -0.3154 N   0  0  0  0  0  2  0  0  0  0  0  0
   -1.3291    0.6995   -0.3158 N   0  0  0  0  0  2  0  0  0  0  0  0
   -1.6260    2.9146   -0.0922 N   0  0  0  0  0  0  0  0  0  0  0  0
   -1.4174    3.9036    0.0302 H   0  0  0  0  0  0  0  0  0  0  0  0
    1.6261    2.9146   -0.0923 N   0  0  0  0  0  0  0  0  0  0  0  0
    1.4176    3.9038    0.0286 H   0  0  0  0  0  0  0  0  0  0  0  0
    0.7175    1.8884   -0.1892 C   0  0  0  0  0  0  0  0  0  0  0  0
    2.8967    2.3557   -0.1477 C   0  0  0  0  0  0  0  0  0  0  0  0
    4.1789    2.9208   -0.0895 C   0  0  0  0  0  0  0  0  0  0  0  0
    4.3329    4.0040    0.0195 H   0  0  0  0  0  0  0  0  0  0  0  0
    5.2586    2.0331   -0.1731 C   0  0  0  0  0  0  0  0  0  0  0  0
    6.2829    2.4316   -0.1292 H   0  0  0  0  0  0  0  0  0  0  0  0
    5.0654    0.6353   -0.3077 C   0  0  0  0  0  0  0  0  0  0  0  0
    5.9452   -0.0222   -0.3629 H   0  0  0  0  0  0  0  0  0  0  0  0
    3.7879    0.0717   -0.3662 C   0  0  0  0  0  0  0  0  0  0  0  0
    3.6337   -1.0113   -0.4583 H   0  0  0  0  0  0  0  0  0  0  0  0
    2.6901    0.9491   -0.2884 C   0  0  0  0  0  0  0  0  0  0  0  0
   -0.7173    1.8884   -0.1893 C   0  0  0  0  0  0  0  0  0  0  0  0
   -2.8966    2.3557   -0.1478 C   0  0  0  0  0  0  0  0  0  0  0  0
   -4.1787    2.9209   -0.0893 C   0  0  0  0  0  0  0  0  0  0  0  0
   -4.3327    4.0040    0.0200 H   0  0  0  0  0  0  0  0  0  0  0  0
   -5.2584    2.0332   -0.1733 C   0  0  0  0  0  0  0  0  0  0  0  0
   -6.2827    2.4316   -0.1292 H   0  0  0  0  0  0  0  0  0  0  0  0
   -5.0652    0.6354   -0.3083 C   0  0  0  0  0  0  0  0  0  0  0  0
   -5.9451   -0.0220   -0.3637 H   0  0  0  0  0  0  0  0  0  0  0  0
   -3.7877    0.0718   -0.3670 C   0  0  0  0  0  0  0  0  0  0  0  0
   -3.6336   -1.0111   -0.4595 H   0  0  0  0  0  0  0  0  0  0  0  0
   -2.6900    0.9492   -0.2888 C   0  0  0  0  0  0  0  0  0  0  0  0
  1 17  1  0  0  0  0
  1  7  1  0  0  0  0
  2 28  1  0  0  0  0
  2 18  1  0  0  0  0
  3  4  1  0  0  0  0
  5  6  1  0  0  0  0
  7  5  1  0  0  0  0
  8  5  1  0  0  0  0
  8  9  1  0  0  0  0
  9 10  1  0  0  0  0
 11 12  1  0  0  0  0
 11  9  2  0  0  0  0
 13 11  1  0  0  0  0
 14 13  1  0  0  0  0
 15 13  2  0  0  0  0
 15 17  1  0  0  0  0
 16 15  1  0  0  0  0
 17  8  2  0  0  0  0
 18  7  2  0  0  0  0
 18  3  1  0  0  0  0
 19  3  1  0  0  0  0
 19 20  1  0  0  0  0
 20 21  1  0  0  0  0
 22 23  1  0  0  0  0
 22 20  2  0  0  0  0
 24 22  1  0  0  0  0
 25 24  1  0  0  0  0
 26 24  2  0  0  0  0
 26 28  1  0  0  0  0
 27 26  1  0  0  0  0
 28 19  2  0  0  0  0
M  END
