4,5
 OpenBabel05122313053D

 52 55  0  0  0  0  0  0  0  0999 V2000
    3.9373   -1.8843    1.6223 O   0  0  0  0  0  0  0  0  0  0  0  0
    2.4335   -3.0796    0.4043 O   0  0  0  0  0  0  0  0  0  0  0  0
   -3.9377   -1.8833   -1.6221 O   0  0  0  0  0  0  0  0  0  0  0  0
   -0.9839    2.0853   -0.8683 N   0  0  0  0  0  2  0  0  0  0  0  0
    0.9847    2.0851    0.8683 N   0  0  0  0  0  2  0  0  0  0  0  0
   -2.4344   -3.0791   -0.4039 O   0  0  0  0  0  0  0  0  0  0  0  0
    1.9922    2.1993    1.7578 C   0  0  0  0  0  0  0  0  0  0  0  0
    2.2680    3.2406    2.0016 H   0  0  0  0  0  0  0  0  0  0  0  0
    2.6149    1.0764    2.3079 C   0  0  0  0  0  0  0  0  0  0  0  0
    3.4338    1.2158    3.0292 H   0  0  0  0  0  0  0  0  0  0  0  0
    2.1893   -0.2137    1.9381 C   0  0  0  0  0  0  0  0  0  0  0  0
    1.1377   -0.3179    1.0122 C   0  0  0  0  0  0  0  0  0  0  0  0
    0.7993   -1.3125    0.6919 H   0  0  0  0  0  0  0  0  0  0  0  0
    0.5507    0.8435    0.4876 C   0  0  0  0  0  0  0  0  0  0  0  0
   -0.5503    0.8436   -0.4875 C   0  0  0  0  0  0  0  0  0  0  0  0
   -1.1376   -0.3177   -1.0120 C   0  0  0  0  0  0  0  0  0  0  0  0
   -0.7995   -1.3123   -0.6917 H   0  0  0  0  0  0  0  0  0  0  0  0
   -2.1891   -0.2132   -1.9379 C   0  0  0  0  0  0  0  0  0  0  0  0
   -2.6144    1.0769   -2.3078 C   0  0  0  0  0  0  0  0  0  0  0  0
   -3.4332    1.2165   -3.0292 H   0  0  0  0  0  0  0  0  0  0  0  0
   -1.9914    2.1998   -1.7578 C   0  0  0  0  0  0  0  0  0  0  0  0
   -2.2669    3.2411   -2.0017 H   0  0  0  0  0  0  0  0  0  0  0  0
   -2.8658   -1.4479   -2.4859 C   0  0  0  0  0  0  0  0  0  0  0  0
   -3.3512   -1.2296   -3.4551 H   0  0  0  0  0  0  0  0  0  0  0  0
   -2.1369   -2.2736   -2.6046 H   0  0  0  0  0  0  0  0  0  0  0  0
   -3.5832   -2.7101   -0.5974 C   0  0  0  0  0  0  0  0  0  0  0  0
   -4.7519   -3.1004    0.2392 C   0  0  0  0  0  0  0  0  0  0  0  0
   -6.0535   -2.6169   -0.0091 C   0  0  0  0  0  0  0  0  0  0  0  0
   -6.2213   -1.9282   -0.8483 H   0  0  0  0  0  0  0  0  0  0  0  0
   -7.1133   -3.0146    0.8161 C   0  0  0  0  0  0  0  0  0  0  0  0
   -8.1285   -2.6361    0.6243 H   0  0  0  0  0  0  0  0  0  0  0  0
   -6.8812   -3.8938    1.8872 C   0  0  0  0  0  0  0  0  0  0  0  0
   -7.7166   -4.2038    2.5334 H   0  0  0  0  0  0  0  0  0  0  0  0
   -5.5851   -4.3770    2.1362 C   0  0  0  0  0  0  0  0  0  0  0  0
   -5.4049   -5.0650    2.9758 H   0  0  0  0  0  0  0  0  0  0  0  0
   -4.5222   -3.9815    1.3161 C   0  0  0  0  0  0  0  0  0  0  0  0
   -3.4972   -4.3415    1.4870 H   0  0  0  0  0  0  0  0  0  0  0  0
    2.8656   -1.4485    2.4861 C   0  0  0  0  0  0  0  0  0  0  0  0
    3.3512   -1.2303    3.4553 H   0  0  0  0  0  0  0  0  0  0  0  0
    2.1365   -2.2740    2.6049 H   0  0  0  0  0  0  0  0  0  0  0  0
    3.5823   -2.7111    0.5976 C   0  0  0  0  0  0  0  0  0  0  0  0
    4.7508   -3.1017   -0.2392 C   0  0  0  0  0  0  0  0  0  0  0  0
    6.0526   -2.6184    0.0088 C   0  0  0  0  0  0  0  0  0  0  0  0
    6.2207   -1.9298    0.8480 H   0  0  0  0  0  0  0  0  0  0  0  0
    7.1122   -3.0165   -0.8166 C   0  0  0  0  0  0  0  0  0  0  0  0
    8.1275   -2.6382   -0.6250 H   0  0  0  0  0  0  0  0  0  0  0  0
    6.8796   -3.8958   -1.8875 C   0  0  0  0  0  0  0  0  0  0  0  0
    7.7148   -4.2060   -2.5338 H   0  0  0  0  0  0  0  0  0  0  0  0
    5.5834   -4.3787   -2.1362 C   0  0  0  0  0  0  0  0  0  0  0  0
    5.4028   -5.0668   -2.9756 H   0  0  0  0  0  0  0  0  0  0  0  0
    4.5208   -3.9828   -1.3159 C   0  0  0  0  0  0  0  0  0  0  0  0
    3.4956   -4.3427   -1.4866 H   0  0  0  0  0  0  0  0  0  0  0  0
  1 38  1  0  0  0  0
  2 41  2  0  0  0  0
  3 26  1  0  0  0  0
  4 15  1  0  0  0  0
  5  7  1  0  0  0  0
  7  8  1  0  0  0  0
  7  9  2  0  0  0  0
  9 10  1  0  0  0  0
 11  9  1  0  0  0  0
 11 38  1  0  0  0  0
 12 11  2  0  0  0  0
 13 12  1  0  0  0  0
 14  5  1  0  0  0  0
 14 12  1  0  0  0  0
 15 14  2  0  0  0  0
 16 17  1  0  0  0  0
 16 15  1  0  0  0  0
 18 16  2  0  0  0  0
 19 18  1  0  0  0  0
 19 21  2  0  0  0  0
 20 19  1  0  0  0  0
 21  4  1  0  0  0  0
 22 21  1  0  0  0  0
 23 18  1  0  0  0  0
 23  3  1  0  0  0  0
 24 23  1  0  0  0  0
 25 23  1  0  0  0  0
 26  6  2  0  0  0  0
 26 27  1  0  0  0  0
 27 36  1  0  0  0  0
 28 27  2  0  0  0  0
 28 30  1  0  0  0  0
 29 28  1  0  0  0  0
 30 32  2  0  0  0  0
 31 30  1  0  0  0  0
 32 34  1  0  0  0  0
 32 33  1  0  0  0  0
 34 35  1  0  0  0  0
 36 37  1  0  0  0  0
 36 34  2  0  0  0  0
 38 40  1  0  0  0  0
 38 39  1  0  0  0  0
 41  1  1  0  0  0  0
 42 43  1  0  0  0  0
 42 41  1  0  0  0  0
 43 44  1  0  0  0  0
 45 46  1  0  0  0  0
 45 43  2  0  0  0  0
 47 45  1  0  0  0  0
 48 47  1  0  0  0  0
 49 47  2  0  0  0  0
 49 51  1  0  0  0  0
 50 49  1  0  0  0  0
 51 42  2  0  0  0  0
 52 51  1  0  0  0  0
M  END
