3,4
 OpenBabel05122313053D

 34 37  0  0  0  0  0  0  0  0999 V2000
    0.0964   -3.9712   -0.9510 S   0  0  0  0  0  0  0  0  0  0  0  0
    1.0030    2.9561   -1.4326 S   0  0  0  0  0  0  0  0  0  0  0  0
    1.7551   -2.0626   -0.4734 N   0  0  0  0  0  2  0  0  0  0  0  0
    0.0495    0.0264   -0.3682 N   0  0  0  0  0  2  0  0  0  0  0  0
   -0.9168    3.4746    0.2361 N   0  0  0  0  0  0  0  0  0  0  0  0
   -7.0363   -1.2003    0.0760 O   0  0  0  0  0  0  0  0  0  0  0  0
    2.5201   -3.1889   -0.6501 C   0  0  0  0  0  0  0  0  0  0  0  0
    3.6111   -3.1215   -0.5561 H   0  0  0  0  0  0  0  0  0  0  0  0
    1.7935   -4.3263   -0.9179 C   0  0  0  0  0  0  0  0  0  0  0  0
    2.1593   -5.3441   -1.0931 H   0  0  0  0  0  0  0  0  0  0  0  0
    0.4493   -2.3062   -0.5916 C   0  0  0  0  0  0  0  0  0  0  0  0
   -0.5118   -1.2215   -0.4584 C   0  0  0  0  0  0  0  0  0  0  0  0
   -1.8927   -1.4451   -0.4205 C   0  0  0  0  0  0  0  0  0  0  0  0
   -2.2778   -2.4733   -0.4913 H   0  0  0  0  0  0  0  0  0  0  0  0
   -2.7841   -0.3656   -0.2380 C   0  0  0  0  0  0  0  0  0  0  0  0
   -2.1956    0.9183   -0.1893 C   0  0  0  0  0  0  0  0  0  0  0  0
   -2.7943    1.8326   -0.0874 H   0  0  0  0  0  0  0  0  0  0  0  0
   -0.8066    1.0842   -0.2946 C   0  0  0  0  0  0  0  0  0  0  0  0
   -0.3100    2.4688   -0.3639 C   0  0  0  0  0  0  0  0  0  0  0  0
   -0.3383    4.6667   -0.0881 C   0  0  0  0  0  0  0  0  0  0  0  0
   -0.7118    5.5976    0.3620 H   0  0  0  0  0  0  0  0  0  0  0  0
    0.7110    4.5944   -0.9897 C   0  0  0  0  0  0  0  0  0  0  0  0
    1.3274    5.4070   -1.3927 H   0  0  0  0  0  0  0  0  0  0  0  0
   -4.2126   -0.6107   -0.1324 C   0  0  0  0  0  0  0  0  0  0  0  0
   -4.5352   -1.6608   -0.2178 H   0  0  0  0  0  0  0  0  0  0  0  0
   -5.1711    0.3420    0.0729 C   0  0  0  0  0  0  0  0  0  0  0  0
   -4.8899    1.4025    0.1719 H   0  0  0  0  0  0  0  0  0  0  0  0
   -6.5766    0.0919    0.1851 C   0  0  0  0  0  0  0  0  0  0  0  0
   -7.6579    0.9423    0.3987 C   0  0  0  0  0  0  0  0  0  0  0  0
   -7.6004    2.0289    0.5257 H   0  0  0  0  0  0  0  0  0  0  0  0
   -8.8261    0.1241    0.4200 C   0  0  0  0  0  0  0  0  0  0  0  0
   -9.8634    0.4437    0.5661 H   0  0  0  0  0  0  0  0  0  0  0  0
   -8.3863   -1.1678    0.2189 C   0  0  0  0  0  0  0  0  0  0  0  0
   -8.8975   -2.1340    0.1554 H   0  0  0  0  0  0  0  0  0  0  0  0
  1  9  1  0  0  0  0
  1 11  1  0  0  0  0
  2 22  1  0  0  0  0
  2 19  1  0  0  0  0
  4 18  1  0  0  0  0
  6 28  1  0  0  0  0
  6 33  1  0  0  0  0
  7  8  1  0  0  0  0
  7  3  1  0  0  0  0
  9  7  2  0  0  0  0
 10  9  1  0  0  0  0
 11  3  1  0  0  0  0
 11 12  2  0  0  0  0
 12 13  1  0  0  0  0
 12  4  1  0  0  0  0
 13 15  2  0  0  0  0
 14 13  1  0  0  0  0
 15 16  1  0  0  0  0
 15 24  1  0  0  0  0
 16 17  1  0  0  0  0
 18 16  2  0  0  0  0
 19 18  1  0  0  0  0
 19  5  2  0  0  0  0
 20  5  1  0  0  0  0
 20 21  1  0  0  0  0
 22 20  2  0  0  0  0
 23 22  1  0  0  0  0
 24 26  2  0  0  0  0
 25 24  1  0  0  0  0
 26 27  1  0  0  0  0
 26 28  1  0  0  0  0
 28 29  2  0  0  0  0
 29 31  1  0  0  0  0
 29 30  1  0  0  0  0
 31 32  1  0  0  0  0
 33 31  2  0  0  0  0
 34 33  1  0  0  0  0
M  END
