1,2
 OpenBabel05122313053D

 42 43  0  0  1  0  0  0  0  0999 V2000
    2.1401   -1.5867    0.2709 N   0  0  0  0  0  2  0  0  0  0  0  0
    0.1476    0.3975    1.4705 N   0  0  0  0  0  0  0  0  0  0  0  0
    0.2443    1.3174    1.0037 H   0  0  0  0  0  0  0  0  0  0  0  0
   -1.3555    3.0493    1.3441 N   0  0  0  0  0  0  0  0  0  0  0  0
    3.0420   -0.8314    0.9382 N   0  0  0  0  0  0  0  0  0  0  0  0
   -2.0801    2.1229    0.6675 N   0  0  0  0  0  0  0  0  0  0  0  0
    2.8274   -2.5346   -0.3981 C   0  0  2  0  0  3  0  0  0  0  0  0
    4.2092   -2.3655   -0.1482 C   0  0  0  0  0  0  0  0  0  0  0  0
    5.0332   -2.9728   -0.5363 H   0  0  0  0  0  0  0  0  0  0  0  0
    4.3190   -1.2613    0.7043 C   0  0  0  0  0  0  0  0  0  0  0  0
    2.6320    0.3605    1.6707 C   0  0  0  0  0  0  0  0  0  0  0  0
    2.6178    1.2308    0.9761 H   0  0  0  0  0  0  0  0  0  0  0  0
    3.4170    0.5586    2.4244 H   0  0  0  0  0  0  0  0  0  0  0  0
    1.2865    0.2316    2.3839 C   0  0  0  0  0  0  0  0  0  0  0  0
    1.2038   -0.7599    2.8772 H   0  0  0  0  0  0  0  0  0  0  0  0
    1.2518    1.0048    3.1864 H   0  0  0  0  0  0  0  0  0  0  0  0
    2.1120   -3.5104   -1.2745 C   0  0  0  0  0  0  0  0  0  0  0  0
    2.7987   -4.2972   -1.6362 H   0  0  0  0  0  0  0  0  0  0  0  0
    1.6740   -2.9833   -2.1493 H   0  0  0  0  0  0  0  0  0  0  0  0
    1.2634   -3.9801   -0.7357 H   0  0  0  0  0  0  0  0  0  0  0  0
    5.5206   -0.5872    1.2782 C   0  0  0  0  0  0  0  0  0  0  0  0
    6.4350   -1.1241    0.9671 H   0  0  0  0  0  0  0  0  0  0  0  0
    5.5034   -0.5689    2.3882 H   0  0  0  0  0  0  0  0  0  0  0  0
    5.6048    0.4623    0.9260 H   0  0  0  0  0  0  0  0  0  0  0  0
   -1.4328    4.1702    0.6054 C   0  0  0  0  0  0  0  0  0  0  0  0
   -2.2263    3.9510   -0.5543 C   0  0  0  0  0  0  0  0  0  0  0  0
   -2.4661    4.6626   -1.3518 H   0  0  0  0  0  0  0  0  0  0  0  0
   -2.6293    2.6142   -0.4898 C   0  0  0  0  0  0  0  0  0  0  0  0
   -2.2751    0.7918    1.2281 C   0  0  0  0  0  0  0  0  0  0  0  0
   -2.3428    0.0698    0.3904 H   0  0  0  0  0  0  0  0  0  0  0  0
   -3.2397    0.7389    1.7779 H   0  0  0  0  0  0  0  0  0  0  0  0
   -1.1497    0.4030    2.1740 C   0  0  0  0  0  0  0  0  0  0  0  0
   -1.1180    1.1092    3.0321 H   0  0  0  0  0  0  0  0  0  0  0  0
   -1.3473   -0.6263    2.5404 H   0  0  0  0  0  0  0  0  0  0  0  0
   -0.7235    5.4166    1.0365 C   0  0  0  0  0  0  0  0  0  0  0  0
   -1.4373    6.2345    1.2682 H   0  0  0  0  0  0  0  0  0  0  0  0
   -0.0444    5.7951    0.2445 H   0  0  0  0  0  0  0  0  0  0  0  0
   -0.1256    5.2138    1.9452 H   0  0  0  0  0  0  0  0  0  0  0  0
   -3.4140    1.7655   -1.4325 C   0  0  0  0  0  0  0  0  0  0  0  0
   -3.8238    2.3861   -2.2503 H   0  0  0  0  0  0  0  0  0  0  0  0
   -4.2563    1.2423   -0.9351 H   0  0  0  0  0  0  0  0  0  0  0  0
   -2.7572    0.9877   -1.8801 H   0  0  0  0  0  0  0  0  0  0  0  0
  1  5  1  0  0  0  0
  2 32  1  0  0  0  0
  2 14  1  0  0  0  0
  3  2  1  0  0  0  0
  5 11  1  0  0  0  0
  6 29  1  0  0  0  0
  6  4  1  0  0  0  0
  7 17  1  6  0  0  0
  7  8  1  0  0  0  0
  7  1  1  0  0  0  0
  8 10  2  0  0  0  0
  9  8  1  0  0  0  0
 10  5  1  0  0  0  0
 10 21  1  0  0  0  0
 11 14  1  0  0  0  0
 11 13  1  0  0  0  0
 12 11  1  0  0  0  0
 14 15  1  0  0  0  0
 14 16  1  0  0  0  0
 17 20  1  0  0  0  0
 18 17  1  0  0  0  0
 19 17  1  0  0  0  0
 21 23  1  0  0  0  0
 22 21  1  0  0  0  0
 24 21  1  0  0  0  0
 25 35  1  0  0  0  0
 25  4  2  0  0  0  0
 26 28  2  0  0  0  0
 26 25  1  0  0  0  0
 27 26  1  0  0  0  0
 28  6  1  0  0  0  0
 29 31  1  0  0  0  0
 29 32  1  0  0  0  0
 30 29  1  0  0  0  0
 32 34  1  0  0  0  0
 32 33  1  0  0  0  0
 35 36  1  0  0  0  0
 35 38  1  0  0  0  0
 37 35  1  0  0  0  0
 39 41  1  0  0  0  0
 39 28  1  0  0  0  0
 40 39  1  0  0  0  0
 42 39  1  0  0  0  0
M  END
