2,3
 OpenBabel05122313053D

 31 32  0  0  1  0  0  0  0  0999 V2000
    2.5011    1.2393   -1.2923 O   0  0  0  0  0  0  0  0  0  0  0  0
    0.5893   -0.4914    0.3725 N   0  0  0  0  0  2  0  0  0  0  0  0
   -1.0765    1.5106    0.0957 N   0  0  0  0  0  2  0  0  0  0  0  0
    3.4370    0.4732   -0.6651 C   0  0  0  0  0  0  0  0  0  0  0  0
    4.7955    0.8330   -0.5958 C   0  0  0  0  0  0  0  0  0  0  0  0
    5.7119    0.0036    0.0655 C   0  0  0  0  0  0  0  0  0  0  0  0
    5.2832   -1.1937    0.6591 C   0  0  0  0  0  0  0  0  0  0  0  0
    3.9313   -1.5569    0.5802 C   0  0  0  0  0  0  0  0  0  0  0  0
    2.9893   -0.7305   -0.0616 C   0  0  0  0  0  0  0  0  0  0  0  0
    1.5600   -1.1510   -0.1996 C   0  0  2  0  0  3  0  0  0  0  0  0
    1.3011   -2.3180   -1.0958 C   0  0  0  0  0  0  0  0  0  0  0  0
    0.8696    0.6734    1.2303 C   0  0  0  0  0  0  0  0  0  0  0  0
    0.1038    1.8507    0.6869 C   0  0  2  0  0  3  0  0  0  0  0  0
    0.5152    3.1829    0.7758 C   0  0  0  0  0  0  0  0  0  0  0  0
   -0.3134    4.1903    0.2583 C   0  0  0  0  0  0  0  0  0  0  0  0
   -1.5289    3.8246   -0.3405 C   0  0  0  0  0  0  0  0  0  0  0  0
   -1.8824    2.4750   -0.4107 C   0  0  0  0  0  0  0  0  0  0  0  0
    2.9359    2.0153   -1.6921 H   0  0  0  0  0  0  0  0  0  0  0  0
    5.1321    1.7693   -1.0705 H   0  0  0  0  0  0  0  0  0  0  0  0
    6.7710    0.2980    0.1117 H   0  0  0  0  0  0  0  0  0  0  0  0
    6.0001   -1.8464    1.1775 H   0  0  0  0  0  0  0  0  0  0  0  0
    3.5848   -2.4968    1.0366 H   0  0  0  0  0  0  0  0  0  0  0  0
    1.5064   -2.0025   -2.1423 H   0  0  0  0  0  0  0  0  0  0  0  0
    2.0183   -3.1332   -0.8711 H   0  0  0  0  0  0  0  0  0  0  0  0
    0.2620   -2.6878   -1.0024 H   0  0  0  0  0  0  0  0  0  0  0  0
    1.9498    0.8934    1.3267 H   0  0  0  0  0  0  0  0  0  0  0  0
    0.4746    0.4289    2.2414 H   0  0  0  0  0  0  0  0  0  0  0  0
    1.4770    3.4206    1.2528 H   0  0  0  0  0  0  0  0  0  0  0  0
   -0.0127    5.2466    0.3209 H   0  0  0  0  0  0  0  0  0  0  0  0
   -2.2099    4.5796   -0.7582 H   0  0  0  0  0  0  0  0  0  0  0  0
   -2.8260    2.1023   -0.8424 H   0  0  0  0  0  0  0  0  0  0  0  0
  1  4  1  0  0  0  0
  2 12  1  0  0  0  0
  3 13  1  0  0  0  0
  4  5  2  0  0  0  0
  4  9  1  0  0  0  0
  5  6  1  0  0  0  0
  6 20  1  0  0  0  0
  6  7  2  0  0  0  0
  7 21  1  0  0  0  0
  8  7  1  0  0  0  0
  8 22  1  0  0  0  0
  9  8  2  0  0  0  0
 10  9  1  0  0  0  0
 10  2  1  6  0  0  0
 11 25  1  0  0  0  0
 11 24  1  0  0  0  0
 11 10  1  0  0  0  0
 12 26  1  0  0  0  0
 12 27  1  0  0  0  0
 13 14  1  0  0  0  0
 13 12  1  1  0  0  0
 14 28  1  0  0  0  0
 15 29  1  0  0  0  0
 15 14  2  0  0  0  0
 16 15  1  0  0  0  0
 17 16  2  0  0  0  0
 17  3  1  0  0  0  0
 18  1  1  0  0  0  0
 19  5  1  0  0  0  0
 23 11  1  0  0  0  0
 30 16  1  0  0  0  0
 31 17  1  0  0  0  0
M  END
