2,3
 OpenBabel05122313053D

 29 31  0  0  1  0  0  0  0  0999 V2000
    9.7409    1.0878   -0.0067 Cl  0  0  0  0  0  0  0  0  0  0  0  0
   -0.1703   -1.9006   -0.5037 N   0  0  0  0  0  2  0  0  0  0  0  0
    1.7929   -0.2549   -0.7715 N   0  0  0  0  0  2  0  0  0  0  0  0
    2.9375    0.4682   -0.7263 N   0  0  0  0  0  0  0  0  0  0  0  0
    3.4538   -1.6884   -0.7005 N   0  0  0  0  0  0  0  0  0  0  0  0
    4.0885   -2.9024   -0.4540 N   0  0  0  0  0  0  0  0  0  0  0  0
    4.0210   -3.0411    0.5798 H   0  0  0  0  0  0  0  0  0  0  0  0
    5.0777   -2.8010   -0.7149 H   0  0  0  0  0  0  0  0  0  0  0  0
   -1.2930   -2.6467   -0.5302 C   0  0  0  0  0  3  0  0  0  0  0  0
   -2.2247   -2.1158   -0.2791 H   0  0  0  0  0  0  0  0  0  0  0  0
   -1.2689   -4.0215   -0.7987 C   0  0  0  0  0  0  0  0  0  0  0  0
   -2.2155   -4.5803   -0.7998 H   0  0  0  0  0  0  0  0  0  0  0  0
   -0.0444   -4.6624   -1.0426 C   0  0  0  0  0  0  0  0  0  0  0  0
   -0.0020   -5.7435   -1.2403 H   0  0  0  0  0  0  0  0  0  0  0  0
    1.1276   -3.8976   -1.0298 C   0  0  0  0  0  0  0  0  0  0  0  0
    2.1222   -4.3276   -1.2082 H   0  0  0  0  0  0  0  0  0  0  0  0
    1.0217   -2.5223   -0.7754 C   0  0  0  0  0  0  0  0  0  0  0  0
    2.0984   -1.5594   -0.7975 C   0  0  1  0  0  3  0  0  0  0  0  0
    3.9483   -0.3932   -0.6391 C   0  0  0  0  0  0  0  0  0  0  0  0
    5.3664   -0.0481   -0.4955 C   0  0  0  0  0  0  0  0  0  0  0  0
    5.9532    0.9098   -1.3498 C   0  0  0  0  0  0  0  0  0  0  0  0
    5.3417    1.3744   -2.1369 H   0  0  0  0  0  0  0  0  0  0  0  0
    7.2982    1.2643   -1.2004 C   0  0  0  0  0  0  0  0  0  0  0  0
    7.7639    2.0056   -1.8645 H   0  0  0  0  0  0  0  0  0  0  0  0
    8.0632    0.6574   -0.1887 C   0  0  0  0  0  0  0  0  0  0  0  0
    7.4895   -0.2816    0.6857 C   0  0  0  0  0  0  0  0  0  0  0  0
    8.0954   -0.7170    1.4924 H   0  0  0  0  0  0  0  0  0  0  0  0
    6.1418   -0.6281    0.5348 C   0  0  0  0  0  0  0  0  0  0  0  0
    5.6616   -1.3021    1.2617 H   0  0  0  0  0  0  0  0  0  0  0  0
  3  4  1  0  0  0  0
  4 19  2  0  0  0  0
  5 19  1  0  0  0  0
  5  6  1  0  0  0  0
  6  7  1  0  0  0  0
  8  6  1  0  0  0  0
  9  2  1  0  0  0  0
  9 10  1  0  0  0  0
 11  9  1  0  0  0  0
 12 11  1  0  0  0  0
 13 15  1  0  0  0  0
 13 11  2  0  0  0  0
 14 13  1  0  0  0  0
 15 17  2  0  0  0  0
 16 15  1  0  0  0  0
 17  2  1  0  0  0  0
 18 17  1  1  0  0  0
 18  3  1  0  0  0  0
 18  5  1  0  0  0  0
 19 20  1  0  0  0  0
 20 28  1  0  0  0  0
 21 23  1  0  0  0  0
 21 20  2  0  0  0  0
 22 21  1  0  0  0  0
 23 25  2  0  0  0  0
 24 23  1  0  0  0  0
 25  1  1  0  0  0  0
 25 26  1  0  0  0  0
 26 27  1  0  0  0  0
 28 26  2  0  0  0  0
 28 29  1  0  0  0  0
M  END
