5,6
 OpenBabel05122313053D

 28 29  0  0  1  0  0  0  0  0999 V2000
   -5.1078    3.2373   -1.1633 O   0  0  0  0  0  0  0  0  0  0  0  0
   -4.8336    3.0427   -2.0791 H   0  0  0  0  0  0  0  0  0  0  0  0
   -5.3909   -2.9687   -0.6093 O   0  0  0  0  0  0  0  0  0  0  0  0
   -5.4660   -2.7687    0.3429 H   0  0  0  0  0  0  0  0  0  0  0  0
   -0.6037    1.3176    0.1015 N   0  0  0  0  0  2  0  0  0  0  0  0
   -0.6466   -1.3183   -0.0673 N   0  0  0  0  0  2  0  0  0  0  0  0
   -0.4678    2.6487    0.1805 C   0  0  0  0  0  3  0  0  0  0  0  0
    0.5498    3.0047    0.4098 H   0  0  0  0  0  0  0  0  0  0  0  0
   -1.5433    3.5203   -0.0264 C   0  0  0  0  0  0  0  0  0  0  0  0
   -1.3905    4.6085    0.0394 H   0  0  0  0  0  0  0  0  0  0  0  0
   -2.8104    2.9828   -0.3221 C   0  0  0  0  0  0  0  0  0  0  0  0
   -2.9348    1.5872   -0.4036 C   0  0  0  0  0  0  0  0  0  0  0  0
   -3.9177    1.1583   -0.6424 H   0  0  0  0  0  0  0  0  0  0  0  0
   -1.8075    0.7772   -0.1838 C   0  0  0  0  0  0  0  0  0  0  0  0
   -1.8372   -0.7103   -0.2511 C   0  0  1  0  0  3  0  0  0  0  0  0
   -3.0054   -1.4539   -0.4904 C   0  0  0  0  0  0  0  0  0  0  0  0
   -3.9812   -0.9698   -0.6338 H   0  0  0  0  0  0  0  0  0  0  0  0
   -2.9357   -2.8549   -0.5344 C   0  0  0  0  0  0  0  0  0  0  0  0
   -1.6808   -3.4638   -0.3441 C   0  0  0  0  0  0  0  0  0  0  0  0
   -1.5735   -4.5593   -0.3631 H   0  0  0  0  0  0  0  0  0  0  0  0
   -0.5624   -2.6548   -0.1117 C   0  0  0  0  0  0  0  0  0  0  0  0
    0.4455   -3.0693    0.0530 H   0  0  0  0  0  0  0  0  0  0  0  0
   -4.0232    3.8718   -0.5234 C   0  0  0  0  0  0  0  0  0  0  0  0
   -4.3941    4.1848    0.4778 H   0  0  0  0  0  0  0  0  0  0  0  0
   -3.7064    4.8112   -1.0385 H   0  0  0  0  0  0  0  0  0  0  0  0
   -4.1852   -3.6743   -0.7984 C   0  0  0  0  0  0  0  0  0  0  0  0
   -4.1760   -3.9933   -1.8643 H   0  0  0  0  0  0  0  0  0  0  0  0
   -4.1363   -4.6153   -0.1983 H   0  0  0  0  0  0  0  0  0  0  0  0
  1 23  1  0  0  0  0
  2  1  1  0  0  0  0
  3  4  1  0  0  0  0
  5  7  1  0  0  0  0
  7  8  1  0  0  0  0
  9 10  1  0  0  0  0
  9  7  1  0  0  0  0
 11  9  2  0  0  0  0
 12 11  1  0  0  0  0
 12 14  2  0  0  0  0
 13 12  1  0  0  0  0
 14  5  1  0  0  0  0
 15 14  1  6  0  0  0
 15  6  1  0  0  0  0
 16 15  1  0  0  0  0
 17 16  1  0  0  0  0
 18 16  2  0  0  0  0
 18 19  1  0  0  0  0
 19 21  2  0  0  0  0
 20 19  1  0  0  0  0
 21  6  1  0  0  0  0
 21 22  1  0  0  0  0
 23 11  1  0  0  0  0
 23 24  1  0  0  0  0
 25 23  1  0  0  0  0
 26  3  1  0  0  0  0
 26 18  1  0  0  0  0
 26 28  1  0  0  0  0
 27 26  1  0  0  0  0
M  END
