3,4
 OpenBabel05122313053D

 27 28  0  0  0  0  0  0  0  0999 V2000
   -5.3822   -0.6107    0.6271 O   0  0  0  0  0  0  0  0  0  0  0  0
   -4.9821   -1.4993    0.5814 H   0  0  0  0  0  0  0  0  0  0  0  0
    1.7316   -0.7847    0.9585 N   0  0  0  0  0  2  0  0  0  0  0  0
   -0.6778    0.5275    1.2963 N   0  0  0  0  0  0  0  0  0  0  0  0
   -0.1307    1.3763    1.5184 H   0  0  0  0  0  0  0  0  0  0  0  0
    3.0357   -1.0830    0.8207 C   0  0  0  0  0  3  0  0  0  0  0  0
    3.4526   -0.9667   -0.1912 H   0  0  0  0  0  0  0  0  0  0  0  0
    3.8196   -1.5105    1.8978 C   0  0  0  0  0  0  0  0  0  0  0  0
    4.8809   -1.7493    1.7421 H   0  0  0  0  0  0  0  0  0  0  0  0
    3.2233   -1.6100    3.1625 C   0  0  0  0  0  0  0  0  0  0  0  0
    3.8099   -1.9333    4.0354 H   0  0  0  0  0  0  0  0  0  0  0  0
    1.8696   -1.2776    3.3036 C   0  0  0  0  0  0  0  0  0  0  0  0
    1.3716   -1.3284    4.2827 H   0  0  0  0  0  0  0  0  0  0  0  0
    1.1422   -0.8712    2.1741 C   0  0  0  0  0  0  0  0  0  0  0  0
   -0.3321   -0.5512    2.2390 C   0  0  0  0  0  0  0  0  0  0  0  0
   -0.8829   -1.4654    1.9268 H   0  0  0  0  0  0  0  0  0  0  0  0
   -0.6352   -0.3036    3.2793 H   0  0  0  0  0  0  0  0  0  0  0  0
   -2.0609    0.8932    1.1836 C   0  0  0  0  0  0  0  0  0  0  0  0
   -3.0516   -0.0873    1.0096 C   0  0  0  0  0  0  0  0  0  0  0  0
   -2.7747   -1.1508    0.9467 H   0  0  0  0  0  0  0  0  0  0  0  0
   -4.3916    0.2989    0.8227 C   0  0  0  0  0  0  0  0  0  0  0  0
   -4.7433    1.6646    0.8271 C   0  0  0  0  0  0  0  0  0  0  0  0
   -5.7966    1.9425    0.6828 H   0  0  0  0  0  0  0  0  0  0  0  0
   -3.7433    2.6276    0.9969 C   0  0  0  0  0  0  0  0  0  0  0  0
   -4.0122    3.6945    0.9890 H   0  0  0  0  0  0  0  0  0  0  0  0
   -2.4006    2.2580    1.1752 C   0  0  0  0  0  0  0  0  0  0  0  0
   -1.6138    3.0191    1.2854 H   0  0  0  0  0  0  0  0  0  0  0  0
  1 21  1  0  0  0  0
  2  1  1  0  0  0  0
  3 14  1  0  0  0  0
  4  5  1  0  0  0  0
  4 15  1  0  0  0  0
  6  3  1  0  0  0  0
  6  8  1  0  0  0  0
  7  6  1  0  0  0  0
  8 10  2  0  0  0  0
  9  8  1  0  0  0  0
 10 12  1  0  0  0  0
 10 11  1  0  0  0  0
 12 13  1  0  0  0  0
 14 15  1  0  0  0  0
 14 12  2  0  0  0  0
 15 17  1  0  0  0  0
 16 15  1  0  0  0  0
 18  4  1  0  0  0  0
 19 18  2  0  0  0  0
 20 19  1  0  0  0  0
 21 22  2  0  0  0  0
 21 19  1  0  0  0  0
 22 24  1  0  0  0  0
 23 22  1  0  0  0  0
 24 26  2  0  0  0  0
 25 24  1  0  0  0  0
 26 18  1  0  0  0  0
 26 27  1  0  0  0  0
M  END
