4,5
 OpenBabel05122313053D

 51 52  0  0  0  0  0  0  0  0999 V2000
   -0.9471    0.0002    0.0002 P   0  0  0  0  0  4  0  0  0  0  0  0
   -0.1541    2.9812   -0.3862 Si  0  0  0  0  0  0  0  0  0  0  0  0
   -0.1569   -2.9814    0.3851 Si  0  0  0  0  0  0  0  0  0  0  0  0
    0.0863    1.2513   -0.1405 N   0  0  0  0  0  2  0  0  0  0  0  0
    0.0853   -1.2517    0.1404 N   0  0  0  0  0  2  0  0  0  0  0  0
   -2.0417   -0.1928   -1.4647 C   0  0  0  0  0  0  0  0  0  0  0  0
   -3.3246    0.3819   -1.5741 C   0  0  0  0  0  0  0  0  0  0  0  0
   -3.7498    0.9479   -0.7329 H   0  0  0  0  0  0  0  0  0  0  0  0
   -4.0631    0.2419   -2.7599 C   0  0  0  0  0  0  0  0  0  0  0  0
   -5.0668    0.6890   -2.8339 H   0  0  0  0  0  0  0  0  0  0  0  0
   -3.5216   -0.4610   -3.8480 C   0  0  0  0  0  0  0  0  0  0  0  0
   -4.1016   -0.5689   -4.7781 H   0  0  0  0  0  0  0  0  0  0  0  0
   -2.2352   -1.0170   -3.7500 C   0  0  0  0  0  0  0  0  0  0  0  0
   -1.7966   -1.5533   -4.6057 H   0  0  0  0  0  0  0  0  0  0  0  0
   -1.4957   -0.8876   -2.5660 C   0  0  0  0  0  0  0  0  0  0  0  0
   -0.4719   -1.2891   -2.4929 H   0  0  0  0  0  0  0  0  0  0  0  0
   -2.0413    0.1946    1.4651 C   0  0  0  0  0  0  0  0  0  0  0  0
   -1.4958    0.8909    2.5655 C   0  0  0  0  0  0  0  0  0  0  0  0
   -0.4722    1.2929    2.4918 H   0  0  0  0  0  0  0  0  0  0  0  0
   -2.2352    1.0213    3.7495 C   0  0  0  0  0  0  0  0  0  0  0  0
   -1.7969    1.5588    4.6045 H   0  0  0  0  0  0  0  0  0  0  0  0
   -3.5213    0.4646    3.8481 C   0  0  0  0  0  0  0  0  0  0  0  0
   -4.1013    0.5732    4.7781 H   0  0  0  0  0  0  0  0  0  0  0  0
   -4.0625   -0.2398    2.7608 C   0  0  0  0  0  0  0  0  0  0  0  0
   -5.0659   -0.6875    2.8354 H   0  0  0  0  0  0  0  0  0  0  0  0
   -3.3239   -0.3808    1.5752 C   0  0  0  0  0  0  0  0  0  0  0  0
   -3.7489   -0.9479    0.7345 H   0  0  0  0  0  0  0  0  0  0  0  0
   -2.0090    3.4094   -0.3650 C   0  0  0  0  0  0  0  0  0  0  0  0
   -2.5084    3.0284    0.5498 H   0  0  0  0  0  0  0  0  0  0  0  0
   -2.5342    2.9963   -1.2492 H   0  0  0  0  0  0  0  0  0  0  0  0
   -2.1323    4.5130   -0.3837 H   0  0  0  0  0  0  0  0  0  0  0  0
    0.5571    3.4727   -2.0623 C   0  0  0  0  0  0  0  0  0  0  0  0
    0.3831    4.5466   -2.2842 H   0  0  0  0  0  0  0  0  0  0  0  0
    0.0956    2.8609   -2.8639 H   0  0  0  0  0  0  0  0  0  0  0  0
    1.6470    3.2720   -2.0680 H   0  0  0  0  0  0  0  0  0  0  0  0
    0.6782    3.9327    1.0159 C   0  0  0  0  0  0  0  0  0  0  0  0
    1.7540    3.6704    1.0523 H   0  0  0  0  0  0  0  0  0  0  0  0
    0.2257    3.6716    1.9941 H   0  0  0  0  0  0  0  0  0  0  0  0
    0.5781    5.0282    0.8642 H   0  0  0  0  0  0  0  0  0  0  0  0
   -2.0120   -3.4088    0.3620 C   0  0  0  0  0  0  0  0  0  0  0  0
   -2.1354   -4.5124    0.3787 H   0  0  0  0  0  0  0  0  0  0  0  0
   -2.5109   -3.0262   -0.5524 H   0  0  0  0  0  0  0  0  0  0  0  0
   -2.5377   -2.9973    1.2467 H   0  0  0  0  0  0  0  0  0  0  0  0
    0.5519   -3.4745    2.0617 C   0  0  0  0  0  0  0  0  0  0  0  0
    0.0896   -2.8627    2.8630 H   0  0  0  0  0  0  0  0  0  0  0  0
    1.6420   -3.2747    2.0692 H   0  0  0  0  0  0  0  0  0  0  0  0
    0.3767   -4.5483    2.2829 H   0  0  0  0  0  0  0  0  0  0  0  0
    0.6753   -3.9328   -1.0172 C   0  0  0  0  0  0  0  0  0  0  0  0
    0.5741   -5.0283   -0.8667 H   0  0  0  0  0  0  0  0  0  0  0  0
    1.7514   -3.6715   -1.0532 H   0  0  0  0  0  0  0  0  0  0  0  0
    0.2233   -3.6702   -1.9953 H   0  0  0  0  0  0  0  0  0  0  0  0
  1  5  1  0  0  0  0
  1 17  1  0  0  0  0
  2 28  1  0  0  0  0
  2  4  1  0  0  0  0
  2 36  1  0  0  0  0
  3 44  1  0  0  0  0
  4  1  1  0  0  0  0
  5  3  1  0  0  0  0
  6  1  1  0  0  0  0
  7  6  1  0  0  0  0
  7  8  1  0  0  0  0
  9  7  2  0  0  0  0
 10  9  1  0  0  0  0
 11 13  2  0  0  0  0
 11  9  1  0  0  0  0
 12 11  1  0  0  0  0
 13 15  1  0  0  0  0
 14 13  1  0  0  0  0
 15 16  1  0  0  0  0
 15  6  2  0  0  0  0
 17 26  2  0  0  0  0
 17 18  1  0  0  0  0
 18 20  2  0  0  0  0
 19 18  1  0  0  0  0
 20 22  1  0  0  0  0
 20 21  1  0  0  0  0
 22 23  1  0  0  0  0
 24 25  1  0  0  0  0
 24 22  2  0  0  0  0
 26 24  1  0  0  0  0
 27 26  1  0  0  0  0
 28 29  1  0  0  0  0
 30 28  1  0  0  0  0
 31 28  1  0  0  0  0
 32  2  1  0  0  0  0
 33 32  1  0  0  0  0
 34 32  1  0  0  0  0
 35 32  1  0  0  0  0
 36 37  1  0  0  0  0
 36 38  1  0  0  0  0
 39 36  1  0  0  0  0
 40 41  1  0  0  0  0
 40  3  1  0  0  0  0
 40 43  1  0  0  0  0
 42 40  1  0  0  0  0
 44 46  1  0  0  0  0
 44 47  1  0  0  0  0
 44 45  1  0  0  0  0
 48 49  1  0  0  0  0
 48  3  1  0  0  0  0
 50 48  1  0  0  0  0
 51 48  1  0  0  0  0
M  END
