3,5
 OpenBabel05122313053D

 24 25  0  0  1  0  0  0  0  0999 V2000
    0.4176   -2.2298   -0.8280 S   0  0  0  0  0  0  0  0  0  0  0  0
   -0.8661   -1.9346    0.8865 S   0  0  0  0  0  0  0  0  0  0  0  0
    1.5441    0.2963   -0.8366 N   0  0  0  0  0  2  0  0  0  0  0  0
    2.9973   -1.3452   -0.4170 N   0  0  0  0  0  0  0  0  0  0  0  0
   -1.6890    0.5116   -0.0581 N   0  0  0  0  0  2  0  0  0  0  0  0
   -3.2807   -1.0332   -0.1571 N   0  0  0  0  0  0  0  0  0  0  0  0
   -1.9818   -0.7646    0.2236 C   0  0  1  0  0  3  0  0  0  0  0  0
    3.5469   -2.6635   -0.1503 C   0  0  0  0  0  0  0  0  0  0  0  0
   -3.9759   -2.3022   -0.0236 C   0  0  0  0  0  0  0  0  0  0  0  0
   -3.8059    0.1303   -0.6795 C   0  0  0  0  0  0  0  0  0  0  0  0
   -2.7953    1.0796   -0.6247 C   0  0  0  0  0  0  0  0  0  0  0  0
    2.7961    0.8360   -0.7231 C   0  0  0  0  0  0  0  0  0  0  0  0
    3.7151   -0.1727   -0.4755 C   0  0  0  0  0  0  0  0  0  0  0  0
    1.6737   -1.0268   -0.6557 C   0  0  2  0  0  3  0  0  0  0  0  0
   -2.7669    2.1269   -0.9523 H   0  0  0  0  0  0  0  0  0  0  0  0
   -4.8407    0.1866   -1.0326 H   0  0  0  0  0  0  0  0  0  0  0  0
   -4.4936   -2.5487   -0.9701 H   0  0  0  0  0  0  0  0  0  0  0  0
   -3.2269   -3.0841    0.2021 H   0  0  0  0  0  0  0  0  0  0  0  0
   -4.7169   -2.2630    0.7997 H   0  0  0  0  0  0  0  0  0  0  0  0
    2.9492    1.9191   -0.7985 H   0  0  0  0  0  0  0  0  0  0  0  0
    4.8011   -0.1547   -0.3384 H   0  0  0  0  0  0  0  0  0  0  0  0
    2.7074   -3.3688   -0.0100 H   0  0  0  0  0  0  0  0  0  0  0  0
    4.1748   -3.0099   -0.9954 H   0  0  0  0  0  0  0  0  0  0  0  0
    4.1575   -2.6334    0.7724 H   0  0  0  0  0  0  0  0  0  0  0  0
  1  2  1  0  0  0  0
  3 12  1  0  0  0  0
  3 14  1  0  0  0  0
  4  8  1  0  0  0  0
  5  7  1  0  0  0  0
  6  9  1  0  0  0  0
  6  7  1  0  0  0  0
  7  2  1  6  0  0  0
  8 22  1  0  0  0  0
  8 24  1  0  0  0  0
  9 18  1  0  0  0  0
  9 19  1  0  0  0  0
 10 11  2  0  0  0  0
 10  6  1  0  0  0  0
 11  5  1  0  0  0  0
 12 13  2  0  0  0  0
 13  4  1  0  0  0  0
 13 21  1  0  0  0  0
 14  1  1  6  0  0  0
 14  4  1  0  0  0  0
 15 11  1  0  0  0  0
 16 10  1  0  0  0  0
 17  9  1  0  0  0  0
 20 12  1  0  0  0  0
 23  8  1  0  0  0  0
M  END
