3,18
 OpenBabel05122313053D

 43 45  0  0  0  0  0  0  0  0999 V2000
    0.3630   -1.3581   -1.0022 P   0  0  0  0  0  0  0  0  0  0  0  0
    0.5400   -2.1226   -2.2919 O   0  0  0  0  0  0  0  0  0  0  0  0
    1.3958   -0.0563   -0.5831 N   0  0  0  0  0  2  0  0  0  0  0  0
    2.7856   -0.1701   -0.5048 C   0  0  0  0  0  0  0  0  0  0  0  0
    3.5231    0.4994    0.4987 C   0  0  0  0  0  0  0  0  0  0  0  0
    2.9768    1.0713    1.2604 H   0  0  0  0  0  0  0  0  0  0  0  0
    4.9192    0.3975    0.5544 C   0  0  0  0  0  0  0  0  0  0  0  0
    5.4662    0.9257    1.3523 H   0  0  0  0  0  0  0  0  0  0  0  0
    5.6378   -0.3841   -0.3713 C   0  0  0  0  0  0  0  0  0  0  0  0
    7.1412   -0.4878   -0.3223 C   0  0  0  0  0  0  0  0  0  0  0  0
    7.5557    0.0060    0.5783 H   0  0  0  0  0  0  0  0  0  0  0  0
    7.6105   -0.0121   -1.2102 H   0  0  0  0  0  0  0  0  0  0  0  0
    7.4765   -1.5459   -0.3145 H   0  0  0  0  0  0  0  0  0  0  0  0
    4.8934   -1.0731   -1.3546 C   0  0  0  0  0  0  0  0  0  0  0  0
    5.4231   -1.7024   -2.0884 H   0  0  0  0  0  0  0  0  0  0  0  0
    3.5022   -0.9751   -1.4307 C   0  0  0  0  0  0  0  0  0  0  0  0
    2.9375   -1.5134   -2.2062 H   0  0  0  0  0  0  0  0  0  0  0  0
   -0.9668   -0.2938   -0.8598 N   0  0  0  0  0  2  0  0  0  0  0  0
   -2.3191   -0.6096   -1.0155 C   0  0  0  0  0  0  0  0  0  0  0  0
   -2.8848   -1.7914   -0.4766 C   0  0  0  0  0  0  0  0  0  0  0  0
   -2.2444   -2.4915    0.0786 H   0  0  0  0  0  0  0  0  0  0  0  0
   -4.2502   -2.0608   -0.6266 C   0  0  0  0  0  0  0  0  0  0  0  0
   -4.6620   -2.9855   -0.1906 H   0  0  0  0  0  0  0  0  0  0  0  0
   -5.1118   -1.1767   -1.3075 C   0  0  0  0  0  0  0  0  0  0  0  0
   -6.5756   -1.4915   -1.4873 C   0  0  0  0  0  0  0  0  0  0  0  0
   -7.1867   -0.5702   -1.5648 H   0  0  0  0  0  0  0  0  0  0  0  0
   -6.9701   -2.0960   -0.6463 H   0  0  0  0  0  0  0  0  0  0  0  0
   -6.7509   -2.0764   -2.4167 H   0  0  0  0  0  0  0  0  0  0  0  0
   -4.5414   -0.0058   -1.8502 C   0  0  0  0  0  0  0  0  0  0  0  0
   -5.1817    0.6977   -2.4070 H   0  0  0  0  0  0  0  0  0  0  0  0
   -3.1770    0.2723   -1.7158 C   0  0  0  0  0  0  0  0  0  0  0  0
   -2.7381    1.1659   -2.1821 H   0  0  0  0  0  0  0  0  0  0  0  0
    0.4102   -2.4889    0.4370 C   0  0  0  0  0  0  0  0  0  0  0  0
    0.3487   -3.8724    0.1787 C   0  0  0  0  0  0  0  0  0  0  0  0
    0.2986   -4.2077   -0.8687 H   0  0  0  0  0  0  0  0  0  0  0  0
    0.3563   -4.7849    1.2445 C   0  0  0  0  0  0  0  0  0  0  0  0
    0.3050   -5.8656    1.0408 H   0  0  0  0  0  0  0  0  0  0  0  0
    0.4352   -4.3217    2.5679 C   0  0  0  0  0  0  0  0  0  0  0  0
    0.4422   -5.0388    3.4031 H   0  0  0  0  0  0  0  0  0  0  0  0
    0.5160   -2.9423    2.8265 C   0  0  0  0  0  0  0  0  0  0  0  0
    0.5922   -2.5793    3.8630 H   0  0  0  0  0  0  0  0  0  0  0  0
    0.5068   -2.0271    1.7649 C   0  0  0  0  0  0  0  0  0  0  0  0
    0.5829   -0.9455    1.9562 H   0  0  0  0  0  0  0  0  0  0  0  0
  1 18  1  0  0  0  0
  1  3  1  0  0  0  0
  1 33  1  0  0  0  0
  2  1  2  0  0  0  0
  3  4  1  0  0  0  0
  4  5  1  0  0  0  0
  5  7  2  0  0  0  0
  5  6  1  0  0  0  0
  7  8  1  0  0  0  0
  9 10  1  0  0  0  0
  9  7  1  0  0  0  0
 10 13  1  0  0  0  0
 10 11  1  0  0  0  0
 12 10  1  0  0  0  0
 14  9  2  0  0  0  0
 15 14  1  0  0  0  0
 16 14  1  0  0  0  0
 16  4  2  0  0  0  0
 17 16  1  0  0  0  0
 19 18  1  0  0  0  0
 19 20  1  0  0  0  0
 20 21  1  0  0  0  0
 22 20  2  0  0  0  0
 22 23  1  0  0  0  0
 24 22  1  0  0  0  0
 25 24  1  0  0  0  0
 25 27  1  0  0  0  0
 26 25  1  0  0  0  0
 28 25  1  0  0  0  0
 29 31  1  0  0  0  0
 29 24  2  0  0  0  0
 30 29  1  0  0  0  0
 31 19  2  0  0  0  0
 32 31  1  0  0  0  0
 33 42  1  0  0  0  0
 34 33  2  0  0  0  0
 34 36  1  0  0  0  0
 35 34  1  0  0  0  0
 36 38  2  0  0  0  0
 37 36  1  0  0  0  0
 38 40  1  0  0  0  0
 38 39  1  0  0  0  0
 40 41  1  0  0  0  0
 42 43  1  0  0  0  0
 42 40  2  0  0  0  0
M  END
