1,16
 OpenBabel05122313053D

 40 42  0  0  0  0  0  0  0  0999 V2000
   -0.4939   -0.4571   -1.6844 N   0  0  0  0  0  2  0  0  0  0  0  0
    0.7187    0.0348   -2.0134 N   0  0  0  0  0  0  0  0  0  0  0  0
   -0.7066   -1.5156   -2.4840 C   0  0  0  0  0  3  0  0  0  0  0  0
   -1.6471   -2.0744   -2.3877 H   0  0  0  0  0  0  0  0  0  0  0  0
    0.3975   -1.7123   -3.3448 C   0  0  0  0  0  0  0  0  0  0  0  0
    0.5229   -2.4815   -4.1130 H   0  0  0  0  0  0  0  0  0  0  0  0
    1.2943   -0.6991   -3.0067 C   0  0  0  0  0  0  0  0  0  0  0  0
    2.2909   -0.4471   -3.3858 H   0  0  0  0  0  0  0  0  0  0  0  0
    1.3235    1.1424   -1.2518 C   0  0  0  0  0  0  0  0  0  0  0  0
    2.0831    1.5742   -1.9373 H   0  0  0  0  0  0  0  0  0  0  0  0
    0.5227    1.8928   -1.0780 H   0  0  0  0  0  0  0  0  0  0  0  0
    1.3234    1.1429    1.2517 C   0  0  0  0  0  0  0  0  0  0  0  0
    0.5228    1.8935    1.0774 H   0  0  0  0  0  0  0  0  0  0  0  0
    2.0829    1.5749    1.9371 H   0  0  0  0  0  0  0  0  0  0  0  0
    0.7181    0.0358    2.0136 N   0  0  0  0  0  0  0  0  0  0  0  0
   -0.4940   -0.4567    1.6840 N   0  0  0  0  0  2  0  0  0  0  0  0
    1.2927   -0.6967    3.0085 C   0  0  0  0  0  3  0  0  0  0  0  0
    2.2890   -0.4442    3.3884 H   0  0  0  0  0  0  0  0  0  0  0  0
    0.3958   -1.7096    3.3470 C   0  0  0  0  0  0  0  0  0  0  0  0
    0.5204   -2.4778    4.1163 H   0  0  0  0  0  0  0  0  0  0  0  0
   -0.7074   -1.5142    2.4846 C   0  0  0  0  0  0  0  0  0  0  0  0
   -1.6478   -2.0732    2.3880 H   0  0  0  0  0  0  0  0  0  0  0  0
    1.9144    0.7685    0.0001 N   0  0  0  0  0  0  0  0  0  0  0  0
    3.1888    0.1078    0.0002 C   0  0  0  0  0  0  0  0  0  0  0  0
    4.3595    0.9178   -0.0003 C   0  0  0  0  0  0  0  0  0  0  0  0
    4.2519    2.4225   -0.0009 C   0  0  0  0  0  0  0  0  0  0  0  0
    5.2543    2.8908   -0.0012 H   0  0  0  0  0  0  0  0  0  0  0  0
    3.7040    2.8026    0.8863 H   0  0  0  0  0  0  0  0  0  0  0  0
    3.7039    2.8019   -0.8883 H   0  0  0  0  0  0  0  0  0  0  0  0
    5.6162    0.2898   -0.0004 C   0  0  0  0  0  0  0  0  0  0  0  0
    6.5268    0.9090   -0.0008 H   0  0  0  0  0  0  0  0  0  0  0  0
    5.7167   -1.1097   -0.0001 C   0  0  0  0  0  0  0  0  0  0  0  0
    6.7076   -1.5890   -0.0002 H   0  0  0  0  0  0  0  0  0  0  0  0
    4.5603   -1.8945    0.0004 C   0  0  0  0  0  0  0  0  0  0  0  0
    4.6417   -2.9929    0.0006 H   0  0  0  0  0  0  0  0  0  0  0  0
    3.2755   -1.3080    0.0006 C   0  0  0  0  0  0  0  0  0  0  0  0
    2.0602   -2.1984    0.0016 C   0  0  0  0  0  0  0  0  0  0  0  0
    1.1169   -1.6271   -0.0008 H   0  0  0  0  0  0  0  0  0  0  0  0
    2.0545   -2.8547    0.8955 H   0  0  0  0  0  0  0  0  0  0  0  0
    2.0566   -2.8596   -0.8887 H   0  0  0  0  0  0  0  0  0  0  0  0
  2  1  1  0  0  0  0
  2  9  1  0  0  0  0
  3  4  1  0  0  0  0
  3  1  1  0  0  0  0
  5  7  2  0  0  0  0
  5  3  1  0  0  0  0
  6  5  1  0  0  0  0
  7  2  1  0  0  0  0
  8  7  1  0  0  0  0
  9 11  1  0  0  0  0
  9 23  1  0  0  0  0
 10  9  1  0  0  0  0
 12 14  1  0  0  0  0
 12 15  1  0  0  0  0
 13 12  1  0  0  0  0
 15 17  1  0  0  0  0
 16 15  1  0  0  0  0
 16 21  1  0  0  0  0
 17 19  1  0  0  0  0
 17 18  1  0  0  0  0
 19 20  1  0  0  0  0
 21 19  2  0  0  0  0
 22 21  1  0  0  0  0
 23 24  1  0  0  0  0
 23 12  1  0  0  0  0
 24 36  1  0  0  0  0
 25 24  2  0  0  0  0
 26 25  1  0  0  0  0
 26 28  1  0  0  0  0
 27 26  1  0  0  0  0
 29 26  1  0  0  0  0
 30 25  1  0  0  0  0
 30 32  2  0  0  0  0
 31 30  1  0  0  0  0
 32 34  1  0  0  0  0
 33 32  1  0  0  0  0
 34 35  1  0  0  0  0
 34 36  2  0  0  0  0
 36 37  1  0  0  0  0
 37 39  1  0  0  0  0
 38 37  1  0  0  0  0
 40 37  1  0  0  0  0
M  END
