1,4
 OpenBabel05122313053D

 19 20  0  0  1  0  0  0  0  0999 V2000
   -0.6818    1.6375   -1.0929 N   0  0  0  0  0  0  0  0  0  0  0  0
   -1.0809    1.8429   -2.3549 N   0  0  0  0  0  0  0  0  0  0  0  0
   -1.2704    3.8084   -1.2103 N   0  0  0  0  0  0  0  0  0  0  0  0
    0.1077    1.6755    1.4509 N   0  0  0  0  0  2  0  0  0  0  0  0
   -1.4307    3.1622   -2.3907 C   0  0  0  0  0  0  0  0  0  0  0  0
   -0.7944    2.8199   -0.4213 C   0  0  0  0  0  3  0  0  0  0  0  0
   -0.3653    2.8653    0.9564 C   0  0  2  0  0  3  0  0  0  0  0  0
   -0.4069    4.0271    1.7561 C   0  0  0  0  0  0  0  0  0  0  0  0
   -0.7988    4.9485    1.3032 H   0  0  0  0  0  0  0  0  0  0  0  0
    0.0476    3.9635    3.0738 C   0  0  0  0  0  0  0  0  0  0  0  0
    0.0230    4.8573    3.7154 H   0  0  0  0  0  0  0  0  0  0  0  0
    0.5434    2.7407    3.5686 C   0  0  0  0  0  0  0  0  0  0  0  0
    0.9181    2.6468    4.5976 H   0  0  0  0  0  0  0  0  0  0  0  0
    0.5580    1.6274    2.7232 C   0  0  0  0  0  0  0  0  0  0  0  0
    0.9308    0.6458    3.0555 H   0  0  0  0  0  0  0  0  0  0  0  0
   -1.9430    3.8072   -3.6385 C   0  0  0  0  0  0  0  0  0  0  0  0
   -1.3094    4.6683   -3.9349 H   0  0  0  0  0  0  0  0  0  0  0  0
   -2.9713    4.1984   -3.4945 H   0  0  0  0  0  0  0  0  0  0  0  0
   -1.9557    3.0701   -4.4625 H   0  0  0  0  0  0  0  0  0  0  0  0
  1  6  1  0  0  0  0
  2  1  2  0  0  0  0
  3  6  1  0  0  0  0
  4 14  1  0  0  0  0
  5  2  1  0  0  0  0
  5  3  2  0  0  0  0
  7  6  1  6  0  0  0
  7  4  1  0  0  0  0
  7  8  1  0  0  0  0
  8 10  2  0  0  0  0
  9  8  1  0  0  0  0
 10 12  1  0  0  0  0
 10 11  1  0  0  0  0
 12 13  1  0  0  0  0
 14 15  1  0  0  0  0
 14 12  2  0  0  0  0
 16 18  1  0  0  0  0
 16  5  1  0  0  0  0
 17 16  1  0  0  0  0
 19 16  1  0  0  0  0
M  END
