1,33
 OpenBabel05122313053D

 64 68  0  0  1  0  0  0  0  0999 V2000
   -1.1781   -0.0394    0.1645 N   0  0  0  0  0  2  0  0  0  0  0  0
   -0.7113   -0.3013    1.5138 C   0  0  2  0  0  0  0  0  0  0  0  0
   -0.5923   -1.4072    1.6292 H   0  0  0  0  0  0  0  0  0  0  0  0
   -1.5037    0.1984    2.7182 C   0  0  0  0  0  0  0  0  0  0  0  0
   -2.5263   -0.2321    2.7205 H   0  0  0  0  0  0  0  0  0  0  0  0
   -1.6162    1.3028    2.6635 H   0  0  0  0  0  0  0  0  0  0  0  0
   -0.7379   -0.2223    3.9889 C   0  0  0  0  0  0  0  0  0  0  0  0
   -0.7798   -1.3312    4.0723 H   0  0  0  0  0  0  0  0  0  0  0  0
   -1.2483    0.1739    4.8909 H   0  0  0  0  0  0  0  0  0  0  0  0
   -2.5653    0.0781   -0.7718 P   0  0  0  0  0  0  0  0  0  0  0  0
   -3.5158    1.5350   -0.1717 C   0  0  0  0  0  0  0  0  0  0  0  0
   -4.4415    1.4765    0.8913 C   0  0  0  0  0  0  0  0  0  0  0  0
   -4.6816    0.5101    1.3601 H   0  0  0  0  0  0  0  0  0  0  0  0
   -5.0546    2.6500    1.3536 C   0  0  0  0  0  0  0  0  0  0  0  0
   -5.7751    2.5992    2.1845 H   0  0  0  0  0  0  0  0  0  0  0  0
   -4.7471    3.8871    0.7623 C   0  0  0  0  0  0  0  0  0  0  0  0
   -5.2307    4.8061    1.1274 H   0  0  0  0  0  0  0  0  0  0  0  0
   -3.8241    3.9498   -0.2936 C   0  0  0  0  0  0  0  0  0  0  0  0
   -3.5807    4.9174   -0.7583 H   0  0  0  0  0  0  0  0  0  0  0  0
   -3.2110    2.7787   -0.7646 C   0  0  0  0  0  0  0  0  0  0  0  0
   -2.4730    2.8218   -1.5813 H   0  0  0  0  0  0  0  0  0  0  0  0
   -3.6148   -1.3911   -0.4597 C   0  0  0  0  0  0  0  0  0  0  0  0
   -2.9868   -2.6075   -0.1151 C   0  0  0  0  0  0  0  0  0  0  0  0
   -1.8930   -2.6405   -0.0020 H   0  0  0  0  0  0  0  0  0  0  0  0
   -3.7508   -3.7715    0.0477 C   0  0  0  0  0  0  0  0  0  0  0  0
   -3.2528   -4.7147    0.3197 H   0  0  0  0  0  0  0  0  0  0  0  0
   -5.1418   -3.7389   -0.1435 C   0  0  0  0  0  0  0  0  0  0  0  0
   -5.7388   -4.6546   -0.0150 H   0  0  0  0  0  0  0  0  0  0  0  0
   -5.7672   -2.5367   -0.5107 C   0  0  0  0  0  0  0  0  0  0  0  0
   -6.8555   -2.5073   -0.6735 H   0  0  0  0  0  0  0  0  0  0  0  0
   -5.0092   -1.3675   -0.6747 C   0  0  0  0  0  0  0  0  0  0  0  0
   -5.5072   -0.4305   -0.9680 H   0  0  0  0  0  0  0  0  0  0  0  0
    1.1781    0.0396    0.1645 N   0  0  0  0  0  2  0  0  0  0  0  0
    0.7113    0.3013    1.5138 C   0  0  2  0  0  0  0  0  0  0  0  0
    0.5923    1.4071    1.6294 H   0  0  0  0  0  0  0  0  0  0  0  0
    1.5037   -0.1985    2.7182 C   0  0  0  0  0  0  0  0  0  0  0  0
    2.5263    0.2320    2.7206 H   0  0  0  0  0  0  0  0  0  0  0  0
    1.6162   -1.3029    2.6634 H   0  0  0  0  0  0  0  0  0  0  0  0
    0.7378    0.2220    3.9889 C   0  0  0  0  0  0  0  0  0  0  0  0
    0.7798    1.3309    4.0724 H   0  0  0  0  0  0  0  0  0  0  0  0
    1.2482   -0.1742    4.8909 H   0  0  0  0  0  0  0  0  0  0  0  0
    2.5653   -0.0780   -0.7717 P   0  0  0  0  0  0  0  0  0  0  0  0
    3.5157   -1.5350   -0.1717 C   0  0  0  0  0  0  0  0  0  0  0  0
    4.4415   -1.4765    0.8912 C   0  0  0  0  0  0  0  0  0  0  0  0
    4.6817   -0.5101    1.3599 H   0  0  0  0  0  0  0  0  0  0  0  0
    5.0547   -2.6501    1.3535 C   0  0  0  0  0  0  0  0  0  0  0  0
    5.7752   -2.5993    2.1843 H   0  0  0  0  0  0  0  0  0  0  0  0
    4.7470   -3.8871    0.7622 C   0  0  0  0  0  0  0  0  0  0  0  0
    5.2306   -4.8062    1.1272 H   0  0  0  0  0  0  0  0  0  0  0  0
    3.8240   -3.9498   -0.2936 C   0  0  0  0  0  0  0  0  0  0  0  0
    3.5805   -4.9174   -0.7583 H   0  0  0  0  0  0  0  0  0  0  0  0
    3.2108   -2.7787   -0.7646 C   0  0  0  0  0  0  0  0  0  0  0  0
    2.4729   -2.8218   -1.5812 H   0  0  0  0  0  0  0  0  0  0  0  0
    3.6149    1.3911   -0.4597 C   0  0  0  0  0  0  0  0  0  0  0  0
    2.9869    2.6075   -0.1149 C   0  0  0  0  0  0  0  0  0  0  0  0
    1.8931    2.6405   -0.0018 H   0  0  0  0  0  0  0  0  0  0  0  0
    3.7509    3.7715    0.0479 C   0  0  0  0  0  0  0  0  0  0  0  0
    3.2529    4.7146    0.3200 H   0  0  0  0  0  0  0  0  0  0  0  0
    5.1419    3.7389   -0.1434 C   0  0  0  0  0  0  0  0  0  0  0  0
    5.7389    4.6545   -0.0149 H   0  0  0  0  0  0  0  0  0  0  0  0
    5.7673    2.5366   -0.5107 C   0  0  0  0  0  0  0  0  0  0  0  0
    6.8555    2.5072   -0.6735 H   0  0  0  0  0  0  0  0  0  0  0  0
    5.0093    1.3675   -0.6748 C   0  0  0  0  0  0  0  0  0  0  0  0
    5.5072    0.4305   -0.9681 H   0  0  0  0  0  0  0  0  0  0  0  0
  1  2  1  0  0  0  0
  2 34  1  0  0  0  0
  2  3  1  1  0  0  0
  2  4  1  0  0  0  0
  4  5  1  0  0  0  0
  4  7  1  0  0  0  0
  6  4  1  0  0  0  0
  7 39  1  0  0  0  0
  7  8  1  0  0  0  0
  7  9  1  0  0  0  0
 10 22  1  0  0  0  0
 10 11  1  0  0  0  0
 10  1  1  0  0  0  0
 11 12  1  0  0  0  0
 12 14  2  0  0  0  0
 12 13  1  0  0  0  0
 14 15  1  0  0  0  0
 16 17  1  0  0  0  0
 16 14  1  0  0  0  0
 18 16  2  0  0  0  0
 19 18  1  0  0  0  0
 20 18  1  0  0  0  0
 20 11  2  0  0  0  0
 21 20  1  0  0  0  0
 22 23  1  0  0  0  0
 23 24  1  0  0  0  0
 23 25  2  0  0  0  0
 25 26  1  0  0  0  0
 27 28  1  0  0  0  0
 27 25  1  0  0  0  0
 29 27  2  0  0  0  0
 30 29  1  0  0  0  0
 31 29  1  0  0  0  0
 31 22  2  0  0  0  0
 32 31  1  0  0  0  0
 33 34  1  0  0  0  0
 34 35  1  1  0  0  0
 34 36  1  0  0  0  0
 36 37  1  0  0  0  0
 36 39  1  0  0  0  0
 38 36  1  0  0  0  0
 39 40  1  0  0  0  0
 39 41  1  0  0  0  0
 42 54  1  0  0  0  0
 42 43  1  0  0  0  0
 42 33  1  0  0  0  0
 43 44  1  0  0  0  0
 44 46  2  0  0  0  0
 44 45  1  0  0  0  0
 46 47  1  0  0  0  0
 48 49  1  0  0  0  0
 48 46  1  0  0  0  0
 50 48  2  0  0  0  0
 51 50  1  0  0  0  0
 52 50  1  0  0  0  0
 52 43  2  0  0  0  0
 53 52  1  0  0  0  0
 54 55  1  0  0  0  0
 55 56  1  0  0  0  0
 55 57  2  0  0  0  0
 57 58  1  0  0  0  0
 59 60  1  0  0  0  0
 59 57  1  0  0  0  0
 61 59  2  0  0  0  0
 62 61  1  0  0  0  0
 63 61  1  0  0  0  0
 63 54  2  0  0  0  0
 64 63  1  0  0  0  0
M  END
