1,2
 OpenBabel05122313053D

 34 36  0  0  1  0  0  0  0  0999 V2000
   -0.1071   -0.0349   -0.3345 N   0  0  0  0  0  2  0  0  0  0  0  0
    2.5099    0.2123    0.1251 N   0  0  0  0  0  2  0  0  0  0  0  0
    0.4067    1.2023   -0.1691 C   0  0  1  0  0  3  0  0  0  0  0  0
   -0.6261    2.1087   -0.0438 N   0  0  0  0  0  0  0  0  0  0  0  0
   -1.8419    1.3748   -0.1354 C   0  0  0  0  0  0  0  0  0  0  0  0
   -3.6502   -0.8882   -0.4157 O   0  0  0  0  0  0  0  0  0  0  0  0
   -1.4552    0.0289   -0.3100 C   0  0  0  0  0  0  0  0  0  0  0  0
    3.8470    0.1731    0.1298 C   0  0  0  0  0  3  0  0  0  0  0  0
    4.2877   -0.8319    0.2379 H   0  0  0  0  0  0  0  0  0  0  0  0
    1.8518    1.3829   -0.0980 C   0  0  0  0  0  0  0  0  0  0  0  0
    4.6280    1.3271   -0.0257 C   0  0  0  0  0  0  0  0  0  0  0  0
    5.7246    1.2635    0.0038 H   0  0  0  0  0  0  0  0  0  0  0  0
   -3.0760    2.0627   -0.0366 C   0  0  0  0  0  0  0  0  0  0  0  0
   -3.9890    1.4606   -0.1224 H   0  0  0  0  0  0  0  0  0  0  0  0
    2.5704    2.5828   -0.2949 C   0  0  0  0  0  0  0  0  0  0  0  0
    2.0557    3.5213   -0.5368 H   0  0  0  0  0  0  0  0  0  0  0  0
    3.9693    2.5473   -0.2402 C   0  0  0  0  0  0  0  0  0  0  0  0
    4.5451    3.4725   -0.3928 H   0  0  0  0  0  0  0  0  0  0  0  0
   -0.6402    3.4722    0.1959 C   0  0  0  0  0  0  0  0  0  0  0  0
    0.3301    3.9644    0.3196 H   0  0  0  0  0  0  0  0  0  0  0  0
   -2.2817   -1.2150   -0.3606 C   0  0  0  0  0  0  0  0  0  0  0  0
   -1.9659   -1.8324   -1.2403 H   0  0  0  0  0  0  0  0  0  0  0  0
   -2.0187   -1.8191    0.5476 H   0  0  0  0  0  0  0  0  0  0  0  0
   -3.0810    3.4304    0.1705 C   0  0  0  0  0  0  0  0  0  0  0  0
   -4.0300    3.9787    0.2500 H   0  0  0  0  0  0  0  0  0  0  0  0
   -1.8423    4.1315    0.2988 C   0  0  0  0  0  0  0  0  0  0  0  0
   -1.8284    5.2131    0.4919 H   0  0  0  0  0  0  0  0  0  0  0  0
   -4.4914   -2.0286   -0.3390 C   0  0  0  0  0  0  0  0  0  0  0  0
   -4.2702   -2.7231   -1.1875 H   0  0  0  0  0  0  0  0  0  0  0  0
   -4.2790   -2.5972    0.5997 H   0  0  0  0  0  0  0  0  0  0  0  0
   -5.9381   -1.5746   -0.3812 C   0  0  0  0  0  0  0  0  0  0  0  0
   -6.1661   -0.9100    0.4763 H   0  0  0  0  0  0  0  0  0  0  0  0
   -6.6197   -2.4465   -0.3342 H   0  0  0  0  0  0  0  0  0  0  0  0
   -6.1473   -1.0191   -1.3174 H   0  0  0  0  0  0  0  0  0  0  0  0
  1  7  1  0  0  0  0
  1  3  1  0  0  0  0
  2  8  1  0  0  0  0
  3 10  1  1  0  0  0
  3  4  1  0  0  0  0
  4 19  1  0  0  0  0
  5  4  1  0  0  0  0
  5 13  1  0  0  0  0
  6 21  1  0  0  0  0
  6 28  1  0  0  0  0
  7  5  2  0  0  0  0
  8  9  1  0  0  0  0
 10  2  1  0  0  0  0
 11 12  1  0  0  0  0
 11  8  1  0  0  0  0
 13 24  2  0  0  0  0
 14 13  1  0  0  0  0
 15 17  1  0  0  0  0
 15 10  2  0  0  0  0
 16 15  1  0  0  0  0
 17 11  2  0  0  0  0
 18 17  1  0  0  0  0
 19 26  2  0  0  0  0
 19 20  1  0  0  0  0
 21  7  1  0  0  0  0
 21 23  1  0  0  0  0
 22 21  1  0  0  0  0
 24 25  1  0  0  0  0
 24 26  1  0  0  0  0
 26 27  1  0  0  0  0
 28 30  1  0  0  0  0
 29 28  1  0  0  0  0
 31 28  1  0  0  0  0
 31 33  1  0  0  0  0
 31 32  1  0  0  0  0
 34 31  1  0  0  0  0
M  END
