3,5
 OpenBabel05122313053D

 48 50  0  0  1  0  0  0  0  0999 V2000
   -3.0045    1.0098   -2.5021 F   0  0  0  0  0  0  0  0  0  0  0  0
    3.1181   -0.3821   -2.3285 F   0  0  0  0  0  0  0  0  0  0  0  0
   -1.0990    1.1319   -0.1906 N   0  0  0  0  0  0  0  0  0  0  0  0
   -1.0387    0.9853   -1.2099 H   0  0  0  0  0  0  0  0  0  0  0  0
    1.1510   -0.3529    0.6640 N   0  0  0  0  0  0  0  0  0  0  0  0
    1.4161   -0.3472    1.6601 H   0  0  0  0  0  0  0  0  0  0  0  0
   -4.2176   -0.0025    0.7760 C   0  0  0  0  0  0  0  0  0  0  0  0
   -4.0044    0.2030    1.8360 H   0  0  0  0  0  0  0  0  0  0  0  0
   -5.1462   -0.9896    0.4137 C   0  0  0  0  0  0  0  0  0  0  0  0
   -5.6909   -1.5388    1.1952 H   0  0  0  0  0  0  0  0  0  0  0  0
   -5.3627   -1.2902   -0.9393 C   0  0  0  0  0  0  0  0  0  0  0  0
   -6.0800   -2.0739   -1.2251 H   0  0  0  0  0  0  0  0  0  0  0  0
   -4.6502   -0.6099   -1.9386 C   0  0  0  0  0  0  0  0  0  0  0  0
   -4.7778   -0.8372   -3.0062 H   0  0  0  0  0  0  0  0  0  0  0  0
   -3.7344    0.3667   -1.5506 C   0  0  0  0  0  0  0  0  0  0  0  0
   -3.4988    0.7033   -0.2074 C   0  0  0  0  0  0  0  0  0  0  0  0
   -2.4257    1.7069    0.1360 C   0  0  0  0  0  0  0  0  0  0  0  0
   -2.5967    2.6673   -0.3990 H   0  0  0  0  0  0  0  0  0  0  0  0
   -2.4337    1.8991    1.2268 H   0  0  0  0  0  0  0  0  0  0  0  0
    0.0772    1.8711    0.3005 C   0  0  2  0  0  0  0  0  0  0  0  0
   -0.0804    1.9778    1.3984 H   0  0  0  0  0  0  0  0  0  0  0  0
    0.2613    3.2553   -0.3377 C   0  0  0  0  0  0  0  0  0  0  0  0
   -0.6478    3.8685   -0.1708 H   0  0  0  0  0  0  0  0  0  0  0  0
    0.3592    3.1253   -1.4400 H   0  0  0  0  0  0  0  0  0  0  0  0
    1.4975    3.9773    0.2105 C   0  0  0  0  0  0  0  0  0  0  0  0
    1.6212    4.9584   -0.2924 H   0  0  0  0  0  0  0  0  0  0  0  0
    1.3405    4.1958    1.2900 H   0  0  0  0  0  0  0  0  0  0  0  0
    2.7566    3.1200    0.0472 C   0  0  0  0  0  0  0  0  0  0  0  0
    3.6358    3.6259    0.4962 H   0  0  0  0  0  0  0  0  0  0  0  0
    2.9853    2.9969   -1.0350 H   0  0  0  0  0  0  0  0  0  0  0  0
    2.5697    1.7353    0.6762 C   0  0  0  0  0  0  0  0  0  0  0  0
    2.4204    1.8410    1.7752 H   0  0  0  0  0  0  0  0  0  0  0  0
    3.4777    1.1175    0.5376 H   0  0  0  0  0  0  0  0  0  0  0  0
    1.3455    1.0049    0.0985 C   0  0  1  0  0  0  0  0  0  0  0  0
    1.4908    0.8720   -0.9966 H   0  0  0  0  0  0  0  0  0  0  0  0
    1.8074   -1.4726   -0.0509 C   0  0  0  0  0  0  0  0  0  0  0  0
    1.3238   -1.5539   -1.0434 H   0  0  0  0  0  0  0  0  0  0  0  0
    1.5282   -2.3998    0.4875 H   0  0  0  0  0  0  0  0  0  0  0  0
    3.3105   -1.3800   -0.1797 C   0  0  0  0  0  0  0  0  0  0  0  0
    4.1704   -1.8121    0.8495 C   0  0  0  0  0  0  0  0  0  0  0  0
    3.7267   -2.2652    1.7508 H   0  0  0  0  0  0  0  0  0  0  0  0
    5.5624   -1.6779    0.7460 C   0  0  0  0  0  0  0  0  0  0  0  0
    6.2110   -2.0243    1.5639 H   0  0  0  0  0  0  0  0  0  0  0  0
    6.1248   -1.1085   -0.4083 C   0  0  0  0  0  0  0  0  0  0  0  0
    7.2160   -1.0016   -0.5000 H   0  0  0  0  0  0  0  0  0  0  0  0
    5.2963   -0.6780   -1.4555 C   0  0  0  0  0  0  0  0  0  0  0  0
    5.7024   -0.2318   -2.3745 H   0  0  0  0  0  0  0  0  0  0  0  0
    3.9119   -0.8213   -1.3222 C   0  0  0  0  0  0  0  0  0  0  0  0
  1 15  1  0  0  0  0
  2 48  1  0  0  0  0
  3 17  1  0  0  0  0
  3 20  1  0  0  0  0
  4  3  1  0  0  0  0
  5  6  1  0  0  0  0
  7  8  1  0  0  0  0
  9  7  1  0  0  0  0
  9 10  1  0  0  0  0
 11  9  2  0  0  0  0
 12 11  1  0  0  0  0
 13 15  2  0  0  0  0
 13 11  1  0  0  0  0
 14 13  1  0  0  0  0
 15 16  1  0  0  0  0
 16 17  1  0  0  0  0
 16  7  2  0  0  0  0
 17 19  1  0  0  0  0
 18 17  1  0  0  0  0
 20 21  1  1  0  0  0
 22 23  1  0  0  0  0
 22 25  1  0  0  0  0
 22 20  1  0  0  0  0
 24 22  1  0  0  0  0
 25 27  1  0  0  0  0
 26 25  1  0  0  0  0
 28 25  1  0  0  0  0
 28 29  1  0  0  0  0
 28 31  1  0  0  0  0
 30 28  1  0  0  0  0
 31 32  1  0  0  0  0
 33 31  1  0  0  0  0
 34 35  1  6  0  0  0
 34 20  1  0  0  0  0
 34  5  1  0  0  0  0
 34 31  1  0  0  0  0
 36 38  1  0  0  0  0
 36  5  1  0  0  0  0
 37 36  1  0  0  0  0
 39 36  1  0  0  0  0
 39 40  1  0  0  0  0
 40 41  1  0  0  0  0
 42 40  2  0  0  0  0
 42 43  1  0  0  0  0
 44 42  1  0  0  0  0
 45 44  1  0  0  0  0
 46 48  1  0  0  0  0
 46 44  2  0  0  0  0
 47 46  1  0  0  0  0
 48 39  2  0  0  0  0
M  END
