6,7
 OpenBabel05122313053D

 36 38  0  0  1  0  0  0  0  0999 V2000
    7.3072   -2.4823    2.2345 F   0  0  0  0  0  0  0  0  0  0  0  0
    9.0815   -1.7121    1.2291 F   0  0  0  0  0  0  0  0  0  0  0  0
    8.1050   -3.5273    0.4972 F   0  0  0  0  0  0  0  0  0  0  0  0
    3.8201    2.7726   -0.2827 O   0  0  0  0  0  0  0  0  0  0  0  0
    2.1656   -0.7480   -3.0118 O   0  0  0  0  0  0  0  0  0  0  0  0
    1.7006    2.1600    0.2056 N   0  0  0  0  0  2  0  0  0  0  0  0
    0.6476    0.0800   -1.5561 N   0  0  0  0  0  2  0  0  0  0  0  0
    1.9866    3.2907    1.0843 C   0  0  0  0  0  0  0  0  0  0  0  0
    1.6652    3.0894    2.1271 H   0  0  0  0  0  0  0  0  0  0  0  0
    1.4458    4.2064    0.7453 H   0  0  0  0  0  0  0  0  0  0  0  0
    3.5124    3.4415    0.9554 C   0  0  0  0  0  0  0  0  0  0  0  0
    3.8673    4.4878    0.8873 H   0  0  0  0  0  0  0  0  0  0  0  0
    4.0577    2.9269    1.7776 H   0  0  0  0  0  0  0  0  0  0  0  0
    2.7601    1.9542   -0.5754 C   0  0  1  0  0  3  0  0  0  0  0  0
    2.9324    1.0470   -1.6471 C   0  0  0  0  0  0  0  0  0  0  0  0
    1.8908    0.1695   -2.0264 C   0  0  0  0  0  0  0  0  0  0  0  0
    0.9152   -1.3655   -3.3776 C   0  0  0  0  0  0  0  0  0  0  0  0
    1.0968   -2.4413   -3.5633 H   0  0  0  0  0  0  0  0  0  0  0  0
    0.5490   -0.8936   -4.3164 H   0  0  0  0  0  0  0  0  0  0  0  0
   -0.0041   -1.0669   -2.1819 C   0  0  0  0  0  0  0  0  0  0  0  0
   -1.0429   -0.8303   -2.4919 H   0  0  0  0  0  0  0  0  0  0  0  0
   -0.0627   -1.9276   -1.4732 H   0  0  0  0  0  0  0  0  0  0  0  0
    4.2981    0.9396   -2.3036 C   0  0  0  0  0  0  0  0  0  0  0  0
    4.1729    0.4824   -3.3039 H   0  0  0  0  0  0  0  0  0  0  0  0
    4.7245    1.9510   -2.4509 H   0  0  0  0  0  0  0  0  0  0  0  0
    5.2662    0.1036   -1.4851 C   0  0  0  0  0  0  0  0  0  0  0  0
    6.2954    0.7038   -0.7343 C   0  0  0  0  0  0  0  0  0  0  0  0
    6.4160    1.7969   -0.7709 H   0  0  0  0  0  0  0  0  0  0  0  0
    7.1549   -0.0674    0.0600 C   0  0  0  0  0  0  0  0  0  0  0  0
    7.9593    0.4116    0.6369 H   0  0  0  0  0  0  0  0  0  0  0  0
    6.9978   -1.4620    0.1138 C   0  0  0  0  0  0  0  0  0  0  0  0
    5.9785   -2.0772   -0.6371 C   0  0  0  0  0  0  0  0  0  0  0  0
    5.8668   -3.1710   -0.6079 H   0  0  0  0  0  0  0  0  0  0  0  0
    5.1232   -1.2994   -1.4240 C   0  0  0  0  0  0  0  0  0  0  0  0
    4.3218   -1.7780   -2.0076 H   0  0  0  0  0  0  0  0  0  0  0  0
    7.8759   -2.2934    1.0123 C   0  0  0  0  0  0  0  0  0  0  0  0
  3 36  1  0  0  0  0
  4 11  1  0  0  0  0
  5 16  1  0  0  0  0
  6  8  1  0  0  0  0
  8  9  1  0  0  0  0
 10  8  1  0  0  0  0
 11  8  1  0  0  0  0
 11 13  1  0  0  0  0
 12 11  1  0  0  0  0
 14 15  1  6  0  0  0
 14  4  1  0  0  0  0
 14  6  1  0  0  0  0
 16 15  2  0  0  0  0
 16  7  1  0  0  0  0
 17  5  1  0  0  0  0
 17 20  1  0  0  0  0
 18 17  1  0  0  0  0
 19 17  1  0  0  0  0
 20  7  1  0  0  0  0
 20 22  1  0  0  0  0
 21 20  1  0  0  0  0
 23 15  1  0  0  0  0
 23 26  1  0  0  0  0
 24 23  1  0  0  0  0
 25 23  1  0  0  0  0
 26 34  2  0  0  0  0
 26 27  1  0  0  0  0
 27 29  2  0  0  0  0
 28 27  1  0  0  0  0
 29 31  1  0  0  0  0
 29 30  1  0  0  0  0
 31 36  1  0  0  0  0
 32 33  1  0  0  0  0
 32 31  2  0  0  0  0
 34 32  1  0  0  0  0
 35 34  1  0  0  0  0
 36  2  1  0  0  0  0
 36  1  1  0  0  0  0
M  END
