1,2
 OpenBabel05122313053D

 26 28  0  0  0  0  0  0  0  0999 V2000
    0.2793   -0.7048    1.7015 N   0  0  0  0  0  2  0  0  0  0  0  0
   -1.8339   -0.1765    0.2435 N   0  0  0  0  0  2  0  0  0  0  0  0
    1.3932   -0.8094    2.4700 C   0  0  0  0  0  3  0  0  0  0  0  0
    1.4235   -1.5559    3.6469 C   0  0  0  0  0  0  0  0  0  0  0  0
    0.2614   -2.2343    4.0542 C   0  0  0  0  0  0  0  0  0  0  0  0
   -0.8936   -2.1102    3.2787 C   0  0  0  0  0  0  0  0  0  0  0  0
   -0.8760   -1.3255    2.1091 C   0  0  0  0  0  0  0  0  0  0  0  0
   -2.0492   -1.0347    1.2805 C   0  0  0  0  0  0  0  0  0  0  0  0
   -3.3316   -1.5699    1.5768 C   0  0  0  0  0  0  0  0  0  0  0  0
   -4.4247   -1.1829    0.8292 C   0  0  0  0  0  0  0  0  0  0  0  0
   -4.2635   -0.1965   -0.1813 C   0  0  0  0  0  0  0  0  0  0  0  0
   -5.3695    0.3134   -0.9155 C   0  0  0  0  0  3  0  0  0  0  0  0
   -5.1913    1.3216   -1.8513 C   0  0  0  0  0  0  0  0  0  0  0  0
   -3.8963    1.8533   -2.0745 C   0  0  0  0  0  0  0  0  0  0  0  0
   -2.7898    1.3628   -1.3926 C   0  0  0  0  0  0  0  0  0  0  0  0
   -2.9369    0.3160   -0.4424 C   0  0  0  0  0  0  0  0  0  0  0  0
    2.2831   -0.2773    2.1055 H   0  0  0  0  0  0  0  0  0  0  0  0
    2.3524   -1.6064    4.2319 H   0  0  0  0  0  0  0  0  0  0  0  0
    0.2550   -2.8433    4.9694 H   0  0  0  0  0  0  0  0  0  0  0  0
   -1.8192   -2.6139    3.5859 H   0  0  0  0  0  0  0  0  0  0  0  0
   -3.4457   -2.2902    2.3966 H   0  0  0  0  0  0  0  0  0  0  0  0
   -5.4225   -1.6020    1.0268 H   0  0  0  0  0  0  0  0  0  0  0  0
   -6.3700   -0.0970   -0.7114 H   0  0  0  0  0  0  0  0  0  0  0  0
   -6.0524    1.7169   -2.4101 H   0  0  0  0  0  0  0  0  0  0  0  0
   -3.7586    2.6664   -2.8028 H   0  0  0  0  0  0  0  0  0  0  0  0
   -1.7848    1.7509   -1.6024 H   0  0  0  0  0  0  0  0  0  0  0  0
  1  7  1  0  0  0  0
  1  3  1  0  0  0  0
  2  8  1  0  0  0  0
  3  4  1  0  0  0  0
  4  5  2  0  0  0  0
  4 18  1  0  0  0  0
  5 19  1  0  0  0  0
  6 20  1  0  0  0  0
  6  5  1  0  0  0  0
  7  6  2  0  0  0  0
  8  9  2  0  0  0  0
  8  7  1  0  0  0  0
  9 21  1  0  0  0  0
 10 22  1  0  0  0  0
 10  9  1  0  0  0  0
 11 10  2  0  0  0  0
 12 23  1  0  0  0  0
 12 11  1  0  0  0  0
 13 12  1  0  0  0  0
 14 13  2  0  0  0  0
 14 15  1  0  0  0  0
 15 16  2  0  0  0  0
 16 11  1  0  0  0  0
 16  2  1  0  0  0  0
 17  3  1  0  0  0  0
 24 13  1  0  0  0  0
 25 14  1  0  0  0  0
 26 15  1  0  0  0  0
M  END
