1,2
 OpenBabel05122313053D

 34 36  0  0  0  0  0  0  0  0999 V2000
    1.4703   -1.0601   -0.0214 N   0  0  0  0  0  2  0  0  0  0  0  0
    0.3443    1.3372    0.1035 N   0  0  0  0  0  2  0  0  0  0  0  0
    2.0214   -2.2858   -0.0696 C   0  0  0  0  0  0  0  0  0  0  0  0
    1.3034   -3.1208   -0.0572 H   0  0  0  0  0  0  0  0  0  0  0  0
    3.4165   -2.5258   -0.0982 C   0  0  0  0  0  0  0  0  0  0  0  0
    3.8896   -3.9550   -0.1577 C   0  0  0  0  0  0  0  0  0  0  0  0
    4.4919   -4.1484   -1.0691 H   0  0  0  0  0  0  0  0  0  0  0  0
    3.0349   -4.6567   -0.1638 H   0  0  0  0  0  0  0  0  0  0  0  0
    4.5291   -4.2098    0.7122 H   0  0  0  0  0  0  0  0  0  0  0  0
    4.3051   -1.4308   -0.0661 C   0  0  0  0  0  0  0  0  0  0  0  0
    5.7970   -1.6083   -0.0949 C   0  0  0  0  0  0  0  0  0  0  0  0
    6.0930   -2.6682   -0.1718 H   0  0  0  0  0  0  0  0  0  0  0  0
    6.2675   -1.1946    0.8216 H   0  0  0  0  0  0  0  0  0  0  0  0
    6.2491   -1.0700   -0.9536 H   0  0  0  0  0  0  0  0  0  0  0  0
    3.7379   -0.1191    0.0028 C   0  0  0  0  0  0  0  0  0  0  0  0
    2.3226    0.0169    0.0211 C   0  0  0  0  0  0  0  0  0  0  0  0
    4.5172    1.0906    0.0583 C   0  0  0  0  0  0  0  0  0  0  0  0
    5.6133    1.0179    0.0442 H   0  0  0  0  0  0  0  0  0  0  0  0
    3.9295    2.3344    0.1306 C   0  0  0  0  0  0  0  0  0  0  0  0
    4.5686    3.2268    0.1715 H   0  0  0  0  0  0  0  0  0  0  0  0
    2.4993    2.4942    0.1532 C   0  0  0  0  0  0  0  0  0  0  0  0
    1.7121    1.3111    0.0929 C   0  0  0  0  0  0  0  0  0  0  0  0
    1.8352    3.7593    0.2305 C   0  0  0  0  0  0  0  0  0  0  0  0
    2.6393    5.0269    0.2958 C   0  0  0  0  0  0  0  0  0  0  0  0
    2.0056    5.9280    0.3548 H   0  0  0  0  0  0  0  0  0  0  0  0
    3.2914    5.1325   -0.5962 H   0  0  0  0  0  0  0  0  0  0  0  0
    3.3102    5.0290    1.1799 H   0  0  0  0  0  0  0  0  0  0  0  0
    0.4241    3.7652    0.2418 C   0  0  0  0  0  0  0  0  0  0  0  0
   -0.3831    5.0351    0.3193 C   0  0  0  0  0  0  0  0  0  0  0  0
   -0.1582    5.6072    1.2426 H   0  0  0  0  0  0  0  0  0  0  0  0
   -1.4682    4.8195    0.3155 H   0  0  0  0  0  0  0  0  0  0  0  0
   -0.1719    5.7072   -0.5375 H   0  0  0  0  0  0  0  0  0  0  0  0
   -0.2625    2.5296    0.1753 C   0  0  0  0  0  0  0  0  0  0  0  0
   -1.3639    2.5131    0.1785 H   0  0  0  0  0  0  0  0  0  0  0  0
  1 16  1  0  0  0  0
  2 33  1  0  0  0  0
  3  4  1  0  0  0  0
  3  1  1  0  0  0  0
  5  3  2  0  0  0  0
  5 10  1  0  0  0  0
  6  5  1  0  0  0  0
  6  9  1  0  0  0  0
  7  6  1  0  0  0  0
  8  6  1  0  0  0  0
 10 15  2  0  0  0  0
 11 10  1  0  0  0  0
 11 13  1  0  0  0  0
 12 11  1  0  0  0  0
 14 11  1  0  0  0  0
 15 16  1  0  0  0  0
 15 17  1  0  0  0  0
 16 22  2  0  0  0  0
 17 19  2  0  0  0  0
 18 17  1  0  0  0  0
 19 21  1  0  0  0  0
 19 20  1  0  0  0  0
 21 23  2  0  0  0  0
 22  2  1  0  0  0  0
 22 21  1  0  0  0  0
 23 28  1  0  0  0  0
 23 24  1  0  0  0  0
 24 25  1  0  0  0  0
 24 27  1  0  0  0  0
 26 24  1  0  0  0  0
 28 29  1  0  0  0  0
 29 30  1  0  0  0  0
 31 29  1  0  0  0  0
 32 29  1  0  0  0  0
 33 34  1  0  0  0  0
 33 28  2  0  0  0  0
M  END
