4,5
 OpenBabel05122313053D

 70 79  0  0  1  0  0  0  0  0999 V2000
   -0.6742   -0.0246    0.0706 P   0  0  0  0  0  4  0  0  0  0  0  0
   -3.0925   -1.3710    0.3009 P   0  0  0  0  0  4  0  0  0  0  0  0
   -3.0484    1.4157    0.0948 P   0  0  0  0  0  4  0  0  0  0  0  0
    3.9125    0.9052    0.8039 N   0  0  0  0  0  2  0  0  0  0  0  0
    3.8081   -1.1892   -0.8837 N   0  0  0  0  0  2  0  0  0  0  0  0
   -2.2029    5.7543    2.0684 C   0  0  0  0  0  0  0  0  0  0  0  0
   -1.4520    6.2149    2.7274 H   0  0  0  0  0  0  0  0  0  0  0  0
   -3.8549    0.0430    0.3093 N   0  0  0  0  0  2  0  0  0  0  0  0
   -4.2167   -5.7982    1.1538 C   0  0  0  0  0  0  0  0  0  0  0  0
   -4.8378   -6.4778    0.5513 H   0  0  0  0  0  0  0  0  0  0  0  0
    1.4743   -1.9047   -2.2573 C   0  0  0  0  0  0  0  0  0  0  0  0
    0.5538   -2.1283   -2.8140 H   0  0  0  0  0  0  0  0  0  0  0  0
   -3.5971   -2.3350   -0.9280 O   0  0  0  0  0  0  0  0  0  0  0  0
   -2.5920   -4.0684    2.6462 C   0  0  0  0  0  0  0  0  0  0  0  0
   -1.9748   -3.3596    3.2155 H   0  0  0  0  0  0  0  0  0  0  0  0
   -3.6410   -2.1770    1.6146 O   0  0  0  0  0  0  0  0  0  0  0  0
    0.4208   -0.0229    1.3102 O   0  0  0  0  0  0  0  0  0  0  0  0
    0.3529   -0.0662   -1.2172 O   0  0  0  0  0  0  0  0  0  0  0  0
   -3.3216    3.7812    1.2202 C   0  0  0  0  0  0  0  0  0  0  0  0
   -5.2785   -3.8592   -0.0618 C   0  0  0  0  0  0  0  0  0  0  0  0
   -1.4784   -1.4016    0.2197 N   0  0  0  0  0  2  0  0  0  0  0  0
   -4.3254   -4.4073    0.9308 C   0  0  0  0  0  0  0  0  0  0  0  0
   -2.5024   -5.4529    2.8410 C   0  0  0  0  0  0  0  0  0  0  0  0
   -1.7904   -5.8559    3.5765 H   0  0  0  0  0  0  0  0  0  0  0  0
    2.9568    2.3183    2.4983 C   0  0  0  0  0  0  0  0  0  0  0  0
    3.1066    3.1084    3.2470 H   0  0  0  0  0  0  0  0  0  0  0  0
    2.6793   -2.5752   -2.4928 C   0  0  0  0  0  0  0  0  0  0  0  0
    2.7434   -3.3825   -3.2353 H   0  0  0  0  0  0  0  0  0  0  0  0
   -3.9486    5.9603    0.3910 C   0  0  0  0  0  0  0  0  0  0  0  0
   -4.5547    6.5853   -0.2818 H   0  0  0  0  0  0  0  0  0  0  0  0
    1.4563   -0.8788   -1.3038 C   0  0  0  0  0  0  0  0  0  0  0  0
   -7.3787    3.9118   -1.5304 C   0  0  0  0  0  0  0  0  0  0  0  0
   -8.3762    4.3654   -1.6259 H   0  0  0  0  0  0  0  0  0  0  0  0
    4.0449    1.8564    1.7492 C   0  0  0  0  0  3  0  0  0  0  0  0
    5.0620    2.2411    1.9087 H   0  0  0  0  0  0  0  0  0  0  0  0
   -4.9056   -2.8145   -0.9405 C   0  0  0  0  0  0  0  0  0  0  0  0
   -7.4834   -3.8648   -1.1372 C   0  0  0  0  0  0  0  0  0  0  0  0
   -8.4997   -4.2796   -1.2067 H   0  0  0  0  0  0  0  0  0  0  0  0
   -7.0888   -2.8178   -1.9867 C   0  0  0  0  0  0  0  0  0  0  0  0
   -7.7907   -2.4088   -2.7285 H   0  0  0  0  0  0  0  0  0  0  0  0
   -1.4374    1.3786   -0.0287 N   0  0  0  0  0  2  0  0  0  0  0  0
   -7.0634    2.7433   -2.2434 C   0  0  0  0  0  0  0  0  0  0  0  0
   -7.8090    2.2766   -2.9042 H   0  0  0  0  0  0  0  0  0  0  0  0
    2.6253   -0.5911   -0.5612 C   0  0  2  0  0  3  0  0  0  0  0  0
   -5.1403    3.9349   -0.5272 C   0  0  0  0  0  0  0  0  0  0  0  0
    1.5718    0.7228    1.3434 C   0  0  0  0  0  0  0  0  0  0  0  0
   -3.0001    6.5539    1.2329 C   0  0  0  0  0  0  0  0  0  0  0  0
   -2.8743    7.6466    1.2293 H   0  0  0  0  0  0  0  0  0  0  0  0
   -6.5874   -4.3751   -0.1895 C   0  0  0  0  0  0  0  0  0  0  0  0
   -6.9055   -5.1783    0.4920 H   0  0  0  0  0  0  0  0  0  0  0  0
   -3.5006   -3.5605    1.7093 C   0  0  0  0  0  0  0  0  0  0  0  0
   -3.5627    2.2279   -1.2324 O   0  0  0  0  0  0  0  0  0  0  0  0
   -4.8474    2.7659   -1.2690 C   0  0  0  0  0  0  0  0  0  0  0  0
    2.6806    0.3901    0.5264 C   0  0  0  0  0  0  0  0  0  0  0  0
   -3.5253    2.4057    1.3096 O   0  0  0  0  0  0  0  0  0  0  0  0
   -5.7931    2.1675   -2.1110 C   0  0  0  0  0  0  0  0  0  0  0  0
   -5.5063    1.2598   -2.6600 H   0  0  0  0  0  0  0  0  0  0  0  0
   -4.1297    4.5596    0.3575 C   0  0  0  0  0  0  0  0  0  0  0  0
   -5.7951   -2.2897   -1.8865 C   0  0  0  0  0  0  0  0  0  0  0  0
   -5.4463   -1.4772   -2.5393 H   0  0  0  0  0  0  0  0  0  0  0  0
   -6.4272    4.4959   -0.6851 C   0  0  0  0  0  0  0  0  0  0  0  0
   -6.6830    5.3972   -0.1081 H   0  0  0  0  0  0  0  0  0  0  0  0
   -3.3199   -6.3183    2.0953 C   0  0  0  0  0  0  0  0  0  0  0  0
   -3.2505   -7.4064    2.2406 H   0  0  0  0  0  0  0  0  0  0  0  0
   -2.3639    4.3627    2.0606 C   0  0  0  0  0  0  0  0  0  0  0  0
   -1.7671    3.7043    2.7074 H   0  0  0  0  0  0  0  0  0  0  0  0
    1.7033    1.7229    2.3154 C   0  0  0  0  0  0  0  0  0  0  0  0
    0.8297    1.9849    2.9284 H   0  0  0  0  0  0  0  0  0  0  0  0
    3.8324   -2.1625   -1.8137 C   0  0  0  0  0  0  0  0  0  0  0  0
    4.8165   -2.5998   -2.0323 H   0  0  0  0  0  0  0  0  0  0  0  0
  1 21  1  0  0  0  0
  1 17  1  0  0  0  0
  2  8  1  0  0  0  0
  2 16  1  0  0  0  0
  3  8  1  0  0  0  0
  3 55  1  0  0  0  0
  4 34  1  0  0  0  0
  5 44  1  0  0  0  0
  6  7  1  0  0  0  0
  9 63  1  0  0  0  0
 10  9  1  0  0  0  0
 11 31  2  0  0  0  0
 12 11  1  0  0  0  0
 13  2  1  0  0  0  0
 14 23  1  0  0  0  0
 14 15  1  0  0  0  0
 16 51  1  0  0  0  0
 17 46  1  0  0  0  0
 18  1  1  0  0  0  0
 19 55  1  0  0  0  0
 19 65  2  0  0  0  0
 20 22  1  0  0  0  0
 21  2  1  0  0  0  0
 22  9  2  0  0  0  0
 22 51  1  0  0  0  0
 23 24  1  0  0  0  0
 25 26  1  0  0  0  0
 27 11  1  0  0  0  0
 27 69  2  0  0  0  0
 28 27  1  0  0  0  0
 29 47  1  0  0  0  0
 30 29  1  0  0  0  0
 31 18  1  0  0  0  0
 32 61  1  0  0  0  0
 33 32  1  0  0  0  0
 34 35  1  0  0  0  0
 34 25  1  0  0  0  0
 36 13  1  0  0  0  0
 36 20  2  0  0  0  0
 37 49  2  0  0  0  0
 38 37  1  0  0  0  0
 39 59  2  0  0  0  0
 39 37  1  0  0  0  0
 40 39  1  0  0  0  0
 41  1  1  0  0  0  0
 41  3  1  0  0  0  0
 42 56  1  0  0  0  0
 42 32  2  0  0  0  0
 43 42  1  0  0  0  0
 44 31  1  6  0  0  0
 44 54  1  0  0  0  0
 45 58  1  0  0  0  0
 46 67  1  0  0  0  0
 47  6  2  0  0  0  0
 48 47  1  0  0  0  0
 49 20  1  0  0  0  0
 49 50  1  0  0  0  0
 51 14  2  0  0  0  0
 52  3  1  0  0  0  0
 53 52  1  0  0  0  0
 53 45  1  0  0  0  0
 54  4  1  0  0  0  0
 54 46  2  0  0  0  0
 56 53  2  0  0  0  0
 57 56  1  0  0  0  0
 58 29  2  0  0  0  0
 58 19  1  0  0  0  0
 59 36  1  0  0  0  0
 60 59  1  0  0  0  0
 61 45  2  0  0  0  0
 61 62  1  0  0  0  0
 63 64  1  0  0  0  0
 63 23  2  0  0  0  0
 65  6  1  0  0  0  0
 65 66  1  0  0  0  0
 67 25  2  0  0  0  0
 67 68  1  0  0  0  0
 69  5  1  0  0  0  0
 70 69  1  0  0  0  0
M  END
