1,2
 OpenBabel05122313053D

 46 47  0  0  1  0  0  0  0  0999 V2000
    2.3048    0.8993    0.3796 N   0  0  0  0  0  2  0  0  0  0  0  0
    1.8095   -1.2293    0.7959 N   0  0  0  0  0  2  0  0  0  0  0  0
   -0.5999   -2.2241    0.6683 N   0  0  0  0  0  0  0  0  0  0  0  0
   -0.4797   -2.1656    1.6919 H   0  0  0  0  0  0  0  0  0  0  0  0
    3.2370    2.4243    0.2498 Si  0  0  0  0  0  0  0  0  0  0  0  0
    4.9575   -1.5552    0.4421 C   0  0  0  0  0  0  0  0  0  0  0  0
    4.7702   -1.7837    1.5025 H   0  0  0  0  0  0  0  0  0  0  0  0
    6.1523   -1.9593   -0.1719 C   0  0  0  0  0  0  0  0  0  0  0  0
    6.9067   -2.5121    0.4081 H   0  0  0  0  0  0  0  0  0  0  0  0
    6.3861   -1.6571   -1.5232 C   0  0  0  0  0  0  0  0  0  0  0  0
    7.3228   -1.9775   -2.0041 H   0  0  0  0  0  0  0  0  0  0  0  0
    5.4228   -0.9497   -2.2622 C   0  0  0  0  0  0  0  0  0  0  0  0
    5.5995   -0.7225   -3.3244 H   0  0  0  0  0  0  0  0  0  0  0  0
    4.2357   -0.5275   -1.6482 C   0  0  0  0  0  0  0  0  0  0  0  0
    3.4699    0.0246   -2.2135 H   0  0  0  0  0  0  0  0  0  0  0  0
    4.0026   -0.8234   -0.2897 C   0  0  0  0  0  0  0  0  0  0  0  0
    2.7257   -0.3725    0.3354 C   0  0  1  0  0  3  0  0  0  0  0  0
    1.8016   -2.6658    0.6724 C   0  0  0  0  0  0  0  0  0  0  0  0
    1.9181   -3.1205    1.6844 H   0  0  0  0  0  0  0  0  0  0  0  0
    2.6312   -3.0568    0.0434 H   0  0  0  0  0  0  0  0  0  0  0  0
    0.4540   -3.0785    0.0747 C   0  0  0  0  0  0  0  0  0  0  0  0
    0.4651   -2.8935   -1.0160 H   0  0  0  0  0  0  0  0  0  0  0  0
    0.2410   -4.1558    0.2522 H   0  0  0  0  0  0  0  0  0  0  0  0
   -1.9509   -2.5836    0.3799 C   0  0  0  0  0  0  0  0  0  0  0  0
   -2.9045   -2.5696    1.4178 C   0  0  0  0  0  0  0  0  0  0  0  0
   -2.5887   -2.2878    2.4342 H   0  0  0  0  0  0  0  0  0  0  0  0
   -4.2426   -2.8856    1.1501 C   0  0  0  0  0  0  0  0  0  0  0  0
   -4.9752   -2.8741    1.9715 H   0  0  0  0  0  0  0  0  0  0  0  0
   -4.6451   -3.2248   -0.1531 C   0  0  0  0  0  0  0  0  0  0  0  0
   -5.6923   -3.4928   -0.3598 H   0  0  0  0  0  0  0  0  0  0  0  0
   -3.6946   -3.2275   -1.1880 C   0  0  0  0  0  0  0  0  0  0  0  0
   -3.9986   -3.4801   -2.2152 H   0  0  0  0  0  0  0  0  0  0  0  0
   -2.3541   -2.9087   -0.9303 C   0  0  0  0  0  0  0  0  0  0  0  0
   -1.6260   -2.8744   -1.7517 H   0  0  0  0  0  0  0  0  0  0  0  0
    2.6879    3.5326    1.6704 C   0  0  0  0  0  0  0  0  0  0  0  0
    1.6143    3.7848    1.5795 H   0  0  0  0  0  0  0  0  0  0  0  0
    3.2795    4.4716    1.6776 H   0  0  0  0  0  0  0  0  0  0  0  0
    2.8418    3.0181    2.6409 H   0  0  0  0  0  0  0  0  0  0  0  0
    5.0897    2.0892    0.4750 C   0  0  0  0  0  0  0  0  0  0  0  0
    5.2864    1.4864    1.3849 H   0  0  0  0  0  0  0  0  0  0  0  0
    5.6043    3.0651    0.6024 H   0  0  0  0  0  0  0  0  0  0  0  0
    5.5521    1.5693   -0.3859 H   0  0  0  0  0  0  0  0  0  0  0  0
    2.9264    3.2202   -1.4303 C   0  0  0  0  0  0  0  0  0  0  0  0
    3.2833    2.5685   -2.2534 H   0  0  0  0  0  0  0  0  0  0  0  0
    3.4571    4.1919   -1.5061 H   0  0  0  0  0  0  0  0  0  0  0  0
    1.8418    3.3966   -1.5686 H   0  0  0  0  0  0  0  0  0  0  0  0
  3  4  1  0  0  0  0
  5  1  1  0  0  0  0
  5 39  1  0  0  0  0
  5 35  1  0  0  0  0
  6  7  1  0  0  0  0
  8  9  1  0  0  0  0
  8  6  1  0  0  0  0
 10  8  2  0  0  0  0
 11 10  1  0  0  0  0
 12 14  2  0  0  0  0
 12 10  1  0  0  0  0
 13 12  1  0  0  0  0
 14 16  1  0  0  0  0
 15 14  1  0  0  0  0
 16 17  1  0  0  0  0
 16  6  2  0  0  0  0
 17  1  1  6  0  0  0
 17  2  1  0  0  0  0
 18  2  1  0  0  0  0
 18 19  1  0  0  0  0
 20 18  1  0  0  0  0
 21 23  1  0  0  0  0
 21  3  1  0  0  0  0
 21 18  1  0  0  0  0
 22 21  1  0  0  0  0
 24  3  1  0  0  0  0
 24 25  1  0  0  0  0
 25 26  1  0  0  0  0
 27 25  2  0  0  0  0
 27 28  1  0  0  0  0
 29 27  1  0  0  0  0
 30 29  1  0  0  0  0
 31 33  1  0  0  0  0
 31 29  2  0  0  0  0
 32 31  1  0  0  0  0
 33 24  2  0  0  0  0
 34 33  1  0  0  0  0
 35 37  1  0  0  0  0
 35 38  1  0  0  0  0
 36 35  1  0  0  0  0
 39 41  1  0  0  0  0
 39 40  1  0  0  0  0
 42 39  1  0  0  0  0
 43  5  1  0  0  0  0
 44 43  1  0  0  0  0
 45 43  1  0  0  0  0
 46 43  1  0  0  0  0
M  END
