47,48
 OpenBabel05122313053D

 48 51  0  0  1  0  0  0  0  0999 V2000
    0.5966    4.9705    1.1265 S   0  0  0  0  0  0  0  0  0  0  0  0
    1.7262    3.7459   -1.7796 S   0  0  0  0  0  0  0  0  0  0  0  0
   -2.0543    3.6522    0.4471 S   0  0  0  0  0  0  0  0  0  0  0  0
   -1.0557    2.5231   -2.1035 S   0  0  0  0  0  0  0  0  0  0  0  0
   -4.3310    1.2332    0.5992 S   0  0  0  0  0  0  0  0  0  0  0  0
   -3.3167    0.1162   -1.9444 S   0  0  0  0  0  0  0  0  0  0  0  0
   -4.5054   -2.6320   -1.4702 S   0  0  0  0  0  0  0  0  0  0  0  0
   -5.6815   -1.3601    1.4386 S   0  0  0  0  0  0  0  0  0  0  0  0
    3.6767   -2.5118   -1.3056 C   0  0  0  0  0  3  0  0  0  0  0  0
    2.9861   -3.3100   -1.6123 H   0  0  0  0  0  0  0  0  0  0  0  0
    5.0385   -2.5710   -1.6073 C   0  0  0  0  0  0  0  0  0  0  0  0
    5.4342   -3.4296   -2.1672 H   0  0  0  0  0  0  0  0  0  0  0  0
    5.8705   -1.5247   -1.1787 C   0  0  0  0  0  0  0  0  0  0  0  0
    6.9483   -1.5361   -1.3967 H   0  0  0  0  0  0  0  0  0  0  0  0
    5.3060   -0.4636   -0.4671 C   0  0  0  0  0  0  0  0  0  0  0  0
    5.9350    0.3684   -0.1255 H   0  0  0  0  0  0  0  0  0  0  0  0
    3.9254   -0.4641   -0.1889 C   0  0  0  0  0  0  0  0  0  0  0  0
    3.2411    0.6179    0.5379 C   0  0  1  0  0  3  0  0  0  0  0  0
    3.9120    1.7156    1.1092 C   0  0  0  0  0  0  0  0  0  0  0  0
    5.0051    1.7889    1.0463 H   0  0  0  0  0  0  0  0  0  0  0  0
    3.1827    2.7030    1.7663 C   0  0  0  0  0  0  0  0  0  0  0  0
    3.6953    3.5702    2.2090 H   0  0  0  0  0  0  0  0  0  0  0  0
    1.1781    1.4744    1.2508 C   0  0  0  0  0  0  0  0  0  0  0  0
    0.0876    1.3367    1.2878 H   0  0  0  0  0  0  0  0  0  0  0  0
    1.7807    2.5956    1.8481 C   0  0  0  0  0  0  0  0  0  0  0  0
    0.9391    3.6810    2.4353 C   0  0  0  0  0  0  0  0  0  0  0  0
    1.4596    4.2277    3.2458 H   0  0  0  0  0  0  0  0  0  0  0  0
   -0.0342    3.3095    2.8109 H   0  0  0  0  0  0  0  0  0  0  0  0
   -0.3487    3.9856    0.0316 C   0  0  0  0  0  0  0  0  0  0  0  0
    2.0783    2.1923   -2.6765 C   0  0  0  0  0  0  0  0  0  0  0  0
    2.0187    1.3204   -1.9996 H   0  0  0  0  0  0  0  0  0  0  0  0
    3.1144    2.3058   -3.0492 H   0  0  0  0  0  0  0  0  0  0  0  0
    1.3991    2.0443   -3.5372 H   0  0  0  0  0  0  0  0  0  0  0  0
    0.1164    3.4459   -1.1455 C   0  0  0  0  0  0  0  0  0  0  0  0
   -2.2058    2.3589   -0.7585 C   0  0  0  0  0  0  0  0  0  0  0  0
   -3.1339    1.3612   -0.6995 C   0  0  0  0  0  0  0  0  0  0  0  0
   -4.2109   -1.0053   -0.8843 C   0  0  0  0  0  0  0  0  0  0  0  0
   -4.6807   -0.4875    0.2948 C   0  0  0  0  0  0  0  0  0  0  0  0
   -2.8013   -3.3048   -1.4687 C   0  0  0  0  0  0  0  0  0  0  0  0
   -2.1197   -2.6626   -2.0588 H   0  0  0  0  0  0  0  0  0  0  0  0
   -2.8610   -4.3056   -1.9376 H   0  0  0  0  0  0  0  0  0  0  0  0
   -2.4278   -3.4038   -0.4329 H   0  0  0  0  0  0  0  0  0  0  0  0
   -4.7638   -1.0796    2.9998 C   0  0  0  0  0  0  0  0  0  0  0  0
   -3.7129   -1.4033    2.8875 H   0  0  0  0  0  0  0  0  0  0  0  0
   -5.2739   -1.7034    3.7589 H   0  0  0  0  0  0  0  0  0  0  0  0
   -4.8056   -0.0184    3.3117 H   0  0  0  0  0  0  0  0  0  0  0  0
    3.1276   -1.4878   -0.6156 N   0  0  0  0  0  2  0  0  0  0  0  0
    1.8837    0.5074    0.6259 N   0  0  0  0  0  2  0  0  0  0  0  0
  1 26  1  0  0  0  0
  2 34  1  0  0  0  0
  4 34  1  0  0  0  0
  4 35  1  0  0  0  0
  6 37  1  0  0  0  0
  6 36  1  0  0  0  0
  7 39  1  0  0  0  0
  7 37  1  0  0  0  0
  8 43  1  0  0  0  0
  9 47  1  0  0  0  0
 10  9  1  0  0  0  0
 11  9  1  0  0  0  0
 11 13  2  0  0  0  0
 12 11  1  0  0  0  0
 13 15  1  0  0  0  0
 14 13  1  0  0  0  0
 15 17  2  0  0  0  0
 15 16  1  0  0  0  0
 18 17  1  6  0  0  0
 18 48  1  0  0  0  0
 18 19  1  0  0  0  0
 19 21  2  0  0  0  0
 20 19  1  0  0  0  0
 21 25  1  0  0  0  0
 21 22  1  0  0  0  0
 23 24  1  0  0  0  0
 23 25  2  0  0  0  0
 25 26  1  0  0  0  0
 26 28  1  0  0  0  0
 26 27  1  0  0  0  0
 29  3  1  0  0  0  0
 29  1  1  0  0  0  0
 30 31  1  0  0  0  0
 30  2  1  0  0  0  0
 32 30  1  0  0  0  0
 33 30  1  0  0  0  0
 34 29  2  0  0  0  0
 35 36  2  0  0  0  0
 35  3  1  0  0  0  0
 36  5  1  0  0  0  0
 37 38  2  0  0  0  0
 38  5  1  0  0  0  0
 38  8  1  0  0  0  0
 39 42  1  0  0  0  0
 40 39  1  0  0  0  0
 41 39  1  0  0  0  0
 43 46  1  0  0  0  0
 43 45  1  0  0  0  0
 44 43  1  0  0  0  0
 47 17  1  0  0  0  0
 48 23  1  0  0  0  0
M  END
