15,26
 OpenBabel05122313053D

 53 53  0  0  0  0  0  0  0  0999 V2000
   -2.5712   -2.0538    0.3808 N   0  0  0  0  0  0  0  0  0  0  0  0
   -2.6232   -3.2199   -0.4947 C   0  0  0  0  0  0  0  0  0  0  0  0
   -1.6238   -3.7083   -0.5222 H   0  0  0  0  0  0  0  0  0  0  0  0
   -2.8809   -2.9081   -1.5224 H   0  0  0  0  0  0  0  0  0  0  0  0
   -3.3773   -3.9553   -0.1412 H   0  0  0  0  0  0  0  0  0  0  0  0
   -3.4456   -0.4963   -1.1393 N   0  0  0  0  0  0  0  0  0  0  0  0
   -2.0020   -2.2978    1.6983 C   0  0  0  0  0  0  0  0  0  0  0  0
   -0.9115   -2.5197    1.6365 H   0  0  0  0  0  0  0  0  0  0  0  0
   -2.5237   -3.1628    2.1580 H   0  0  0  0  0  0  0  0  0  0  0  0
   -2.1431   -1.4059    2.3352 H   0  0  0  0  0  0  0  0  0  0  0  0
   -4.7974   -1.0245   -1.1286 C   0  0  0  0  0  0  0  0  0  0  0  0
   -4.9295   -1.6858   -0.2536 H   0  0  0  0  0  0  0  0  0  0  0  0
   -5.0281   -1.6043   -2.0502 H   0  0  0  0  0  0  0  0  0  0  0  0
   -5.5342   -0.1921   -1.0547 H   0  0  0  0  0  0  0  0  0  0  0  0
   -1.6512    0.1060    0.3123 N   0  0  0  0  0  2  0  0  0  0  0  0
   -3.1781    0.5572   -2.0989 C   0  0  0  0  0  0  0  0  0  0  0  0
   -2.0864    0.7088   -2.1854 H   0  0  0  0  0  0  0  0  0  0  0  0
   -3.6406    1.5279   -1.8100 H   0  0  0  0  0  0  0  0  0  0  0  0
   -3.5739    0.2571   -3.0923 H   0  0  0  0  0  0  0  0  0  0  0  0
   -2.5375   -0.7811   -0.1347 C   0  0  0  0  0  3  0  0  0  0  0  0
   -2.0023    1.4562    0.4764 C   0  0  0  0  0  0  0  0  0  0  0  0
    2.9976    2.1346   -1.0784 N   0  0  0  0  0  0  0  0  0  0  0  0
    2.3580    1.5007   -0.0181 C   0  0  0  0  0  3  0  0  0  0  0  0
   -3.2294    1.7879    1.1039 C   0  0  0  0  0  0  0  0  0  0  0  0
   -3.8889    0.9675    1.4277 H   0  0  0  0  0  0  0  0  0  0  0  0
    1.0528    1.3646    0.0692 N   0  0  0  0  0  2  0  0  0  0  0  0
   -3.5965    3.1182    1.3350 C   0  0  0  0  0  0  0  0  0  0  0  0
   -4.5561    3.3413    1.8268 H   0  0  0  0  0  0  0  0  0  0  0  0
   -2.7328    4.1587    0.9587 C   0  0  0  0  0  0  0  0  0  0  0  0
   -3.0036    5.2084    1.1454 H   0  0  0  0  0  0  0  0  0  0  0  0
    3.1679    1.0276    0.9937 N   0  0  0  0  0  0  0  0  0  0  0  0
   -1.5123    3.8398    0.3449 C   0  0  0  0  0  0  0  0  0  0  0  0
   -0.8284    4.6492    0.0413 H   0  0  0  0  0  0  0  0  0  0  0  0
   -1.1280    2.5127    0.0839 C   0  0  0  0  0  0  0  0  0  0  0  0
    0.1606    2.2445   -0.6682 C   0  0  0  0  0  0  0  0  0  0  0  0
   -0.1013    1.7999   -1.6615 H   0  0  0  0  0  0  0  0  0  0  0  0
    0.6541    3.2166   -0.8966 H   0  0  0  0  0  0  0  0  0  0  0  0
    2.5968    1.8531   -2.4438 C   0  0  0  0  0  0  0  0  0  0  0  0
    2.1120    2.7225   -2.9441 H   0  0  0  0  0  0  0  0  0  0  0  0
    1.8958    0.9983   -2.4538 H   0  0  0  0  0  0  0  0  0  0  0  0
    3.4864    1.5662   -3.0486 H   0  0  0  0  0  0  0  0  0  0  0  0
    4.1593    2.9808   -0.8952 C   0  0  0  0  0  0  0  0  0  0  0  0
    4.3152    3.1623    0.1839 H   0  0  0  0  0  0  0  0  0  0  0  0
    4.0063    3.9613   -1.3997 H   0  0  0  0  0  0  0  0  0  0  0  0
    5.0911    2.5312   -1.3125 H   0  0  0  0  0  0  0  0  0  0  0  0
    2.5650    0.6948    2.2740 C   0  0  0  0  0  0  0  0  0  0  0  0
    3.3387    0.7637    3.0669 H   0  0  0  0  0  0  0  0  0  0  0  0
    2.1449   -0.3380    2.2686 H   0  0  0  0  0  0  0  0  0  0  0  0
    1.7433    1.4011    2.4909 H   0  0  0  0  0  0  0  0  0  0  0  0
    4.3845    0.2847    0.6845 C   0  0  0  0  0  0  0  0  0  0  0  0
    5.2253    0.6106    1.3339 H   0  0  0  0  0  0  0  0  0  0  0  0
    4.6682    0.4392   -0.3712 H   0  0  0  0  0  0  0  0  0  0  0  0
    4.2132   -0.8054    0.8277 H   0  0  0  0  0  0  0  0  0  0  0  0
  1  7  1  0  0  0  0
  2  5  1  0  0  0  0
  2  1  1  0  0  0  0
  3  2  1  0  0  0  0
  4  2  1  0  0  0  0
  6 11  1  0  0  0  0
  6 20  1  0  0  0  0
  7  9  1  0  0  0  0
  7 10  1  0  0  0  0
  8  7  1  0  0  0  0
 11 14  1  0  0  0  0
 11 12  1  0  0  0  0
 13 11  1  0  0  0  0
 15 21  1  0  0  0  0
 16 18  1  0  0  0  0
 16  6  1  0  0  0  0
 17 16  1  0  0  0  0
 19 16  1  0  0  0  0
 20 15  1  0  0  0  0
 20  1  1  0  0  0  0
 21 24  1  0  0  0  0
 22 42  1  0  0  0  0
 22 23  1  0  0  0  0
 23 26  1  0  0  0  0
 23 31  1  0  0  0  0
 24 27  2  0  0  0  0
 24 25  1  0  0  0  0
 27 28  1  0  0  0  0
 29 30  1  0  0  0  0
 29 27  1  0  0  0  0
 31 46  1  0  0  0  0
 32 29  2  0  0  0  0
 33 32  1  0  0  0  0
 34 32  1  0  0  0  0
 34 21  2  0  0  0  0
 35 26  1  0  0  0  0
 35 34  1  0  0  0  0
 36 35  1  0  0  0  0
 37 35  1  0  0  0  0
 38 22  1  0  0  0  0
 39 38  1  0  0  0  0
 40 38  1  0  0  0  0
 41 38  1  0  0  0  0
 42 43  1  0  0  0  0
 44 42  1  0  0  0  0
 45 42  1  0  0  0  0
 46 49  1  0  0  0  0
 46 47  1  0  0  0  0
 48 46  1  0  0  0  0
 50 53  1  0  0  0  0
 50 31  1  0  0  0  0
 50 51  1  0  0  0  0
 52 50  1  0  0  0  0
M  END
