3,6
 OpenBabel05122313053D

 31 31  0  0  1  0  0  0  0  0999 V2000
    1.7742    0.0600   -1.3006 C   0  0  2  0  0  0  0  0  0  0  0  0
    1.7879    1.1704   -1.3495 H   0  0  0  0  0  0  0  0  0  0  0  0
    0.4241   -0.3891   -1.6944 N   0  0  0  0  0  0  0  0  0  0  0  0
    0.3369   -1.4585   -1.7241 H   0  0  0  0  0  0  0  0  0  0  0  0
    0.0854    0.0360   -2.5706 H   0  0  0  0  0  0  0  0  0  0  0  0
    0.8927    0.1910    1.0015 N   0  0  0  0  0  0  0  0  0  0  0  0
    0.9720    1.2569    1.0014 H   0  0  0  0  0  0  0  0  0  0  0  0
    2.8646   -0.5022   -2.2187 C   0  0  0  0  0  0  0  0  0  0  0  0
    2.8032   -1.6127   -2.2021 H   0  0  0  0  0  0  0  0  0  0  0  0
    2.6668   -0.1849   -3.2640 H   0  0  0  0  0  0  0  0  0  0  0  0
    4.2532   -0.0429   -1.7588 C   0  0  0  0  0  0  0  0  0  0  0  0
    4.3318    1.0606   -1.8750 H   0  0  0  0  0  0  0  0  0  0  0  0
    5.0339   -0.4840   -2.4113 H   0  0  0  0  0  0  0  0  0  0  0  0
    4.4968   -0.4187   -0.2937 C   0  0  0  0  0  0  0  0  0  0  0  0
    5.4833   -0.0424    0.0458 H   0  0  0  0  0  0  0  0  0  0  0  0
    4.5353   -1.5268   -0.2002 H   0  0  0  0  0  0  0  0  0  0  0  0
    3.3938    0.1248    0.6249 C   0  0  0  0  0  0  0  0  0  0  0  0
    3.4014    1.2370    0.6231 H   0  0  0  0  0  0  0  0  0  0  0  0
    3.5783   -0.1938    1.6684 H   0  0  0  0  0  0  0  0  0  0  0  0
    2.0059   -0.3497    0.1676 C   0  0  2  0  0  0  0  0  0  0  0  0
    1.9556   -1.4584    0.2122 H   0  0  0  0  0  0  0  0  0  0  0  0
    0.7755   -0.2768    2.4333 C   0  0  0  0  0  0  0  0  0  0  0  0
   -0.3152   -0.2440    2.6335 H   0  0  0  0  0  0  0  0  0  0  0  0
    1.2539   -1.7076    2.6582 C   0  0  0  0  0  0  0  0  0  0  0  0
    0.7417   -2.4173    1.9833 H   0  0  0  0  0  0  0  0  0  0  0  0
    1.0033   -2.0021    3.6961 H   0  0  0  0  0  0  0  0  0  0  0  0
    2.3506   -1.8247    2.5413 H   0  0  0  0  0  0  0  0  0  0  0  0
    1.4292    0.7386    3.3775 C   0  0  0  0  0  0  0  0  0  0  0  0
    1.1786    0.4780    4.4250 H   0  0  0  0  0  0  0  0  0  0  0  0
    1.0443    1.7584    3.1803 H   0  0  0  0  0  0  0  0  0  0  0  0
    2.5338    0.7596    3.2891 H   0  0  0  0  0  0  0  0  0  0  0  0
  1  2  1  6  0  0  0
  1 20  1  0  0  0  0
  3  1  1  0  0  0  0
  4  3  1  0  0  0  0
  5  3  1  0  0  0  0
  6 22  1  0  0  0  0
  7  6  1  0  0  0  0
  8  9  1  0  0  0  0
  8 11  1  0  0  0  0
  8  1  1  0  0  0  0
 10  8  1  0  0  0  0
 11 14  1  0  0  0  0
 12 11  1  0  0  0  0
 13 11  1  0  0  0  0
 14 16  1  0  0  0  0
 14 15  1  0  0  0  0
 14 17  1  0  0  0  0
 17 19  1  0  0  0  0
 18 17  1  0  0  0  0
 20 21  1  1  0  0  0
 20 17  1  0  0  0  0
 20  6  1  0  0  0  0
 22 23  1  0  0  0  0
 22 24  1  0  0  0  0
 22 28  1  0  0  0  0
 24 26  1  0  0  0  0
 25 24  1  0  0  0  0
 27 24  1  0  0  0  0
 28 29  1  0  0  0  0
 30 28  1  0  0  0  0
 31 28  1  0  0  0  0
M  END
