2,3
 OpenBabel05122313053D

 36 37  0  0  1  0  0  0  0  0999 V2000
   -0.7143    4.1776   -0.7381 O   0  0  0  0  0  0  0  0  0  0  0  0
    1.2751    1.2457   -0.4719 N   0  0  0  0  0  2  0  0  0  0  0  0
   -1.4107    0.6954   -0.8434 N   0  0  0  0  0  2  0  0  0  0  0  0
    2.0093    3.5426   -1.0278 C   0  0  0  0  0  0  0  0  0  0  0  0
    2.7561    3.6138   -0.2119 H   0  0  0  0  0  0  0  0  0  0  0  0
    1.5121    4.5207   -1.1522 H   0  0  0  0  0  0  0  0  0  0  0  0
    2.5706    3.2800   -1.9482 H   0  0  0  0  0  0  0  0  0  0  0  0
    0.9678    2.5060   -0.7160 C   0  0  1  0  0  3  0  0  0  0  0  0
   -0.4537    2.9611   -0.7520 C   0  0  0  0  0  0  0  0  0  0  0  0
   -1.5363    1.9938   -1.0849 C   0  0  1  0  0  3  0  0  0  0  0  0
   -2.7557    2.6010   -1.7198 C   0  0  0  0  0  0  0  0  0  0  0  0
   -3.2599    1.8927   -2.4028 H   0  0  0  0  0  0  0  0  0  0  0  0
   -2.4746    3.5296   -2.2496 H   0  0  0  0  0  0  0  0  0  0  0  0
   -3.4925    2.8985   -0.9430 H   0  0  0  0  0  0  0  0  0  0  0  0
    2.6321    0.8057   -0.6128 C   0  0  0  0  0  0  0  0  0  0  0  0
    3.5314    0.9185    0.4635 C   0  0  0  0  0  0  0  0  0  0  0  0
    3.1870    1.3759    1.4013 H   0  0  0  0  0  0  0  0  0  0  0  0
    4.8336    0.4165    0.3314 C   0  0  0  0  0  0  0  0  0  0  0  0
    5.5357    0.5023    1.1750 H   0  0  0  0  0  0  0  0  0  0  0  0
    5.2428   -0.1954   -0.8649 C   0  0  0  0  0  0  0  0  0  0  0  0
    6.2642   -0.5929   -0.9608 H   0  0  0  0  0  0  0  0  0  0  0  0
    4.3430   -0.2967   -1.9379 C   0  0  0  0  0  0  0  0  0  0  0  0
    4.6572   -0.7729   -2.8793 H   0  0  0  0  0  0  0  0  0  0  0  0
    3.0384    0.2024   -1.8172 C   0  0  0  0  0  0  0  0  0  0  0  0
    2.3148    0.1137   -2.6398 H   0  0  0  0  0  0  0  0  0  0  0  0
   -2.4501   -0.2065   -1.2521 C   0  0  0  0  0  0  0  0  0  0  0  0
   -3.6886   -0.2108   -0.5833 C   0  0  0  0  0  0  0  0  0  0  0  0
   -3.8536    0.4934    0.2446 H   0  0  0  0  0  0  0  0  0  0  0  0
   -4.6791   -1.1292   -0.9592 C   0  0  0  0  0  0  0  0  0  0  0  0
   -5.6443   -1.1327   -0.4299 H   0  0  0  0  0  0  0  0  0  0  0  0
   -4.4435   -2.0373   -2.0039 C   0  0  0  0  0  0  0  0  0  0  0  0
   -5.2231   -2.7558   -2.2985 H   0  0  0  0  0  0  0  0  0  0  0  0
   -3.2062   -2.0257   -2.6686 C   0  0  0  0  0  0  0  0  0  0  0  0
   -3.0134   -2.7368   -3.4863 H   0  0  0  0  0  0  0  0  0  0  0  0
   -2.2051   -1.1190   -2.2935 C   0  0  0  0  0  0  0  0  0  0  0  0
   -1.2191   -1.1234   -2.7754 H   0  0  0  0  0  0  0  0  0  0  0  0
  4  8  1  0  0  0  0
  4  5  1  0  0  0  0
  6  4  1  0  0  0  0
  7  4  1  0  0  0  0
  8  9  1  6  0  0  0
  8  2  1  0  0  0  0
  9  1  2  0  0  0  0
 10  3  1  6  0  0  0
 10  9  1  0  0  0  0
 11 10  1  0  0  0  0
 11 14  1  0  0  0  0
 12 11  1  0  0  0  0
 13 11  1  0  0  0  0
 15  2  1  0  0  0  0
 15 16  1  0  0  0  0
 16 17  1  0  0  0  0
 18 16  2  0  0  0  0
 18 19  1  0  0  0  0
 20 18  1  0  0  0  0
 21 20  1  0  0  0  0
 22 24  1  0  0  0  0
 22 20  2  0  0  0  0
 23 22  1  0  0  0  0
 24 15  2  0  0  0  0
 25 24  1  0  0  0  0
 26  3  1  0  0  0  0
 26 27  1  0  0  0  0
 27 28  1  0  0  0  0
 29 27  2  0  0  0  0
 29 30  1  0  0  0  0
 31 29  1  0  0  0  0
 32 31  1  0  0  0  0
 33 35  1  0  0  0  0
 33 31  2  0  0  0  0
 34 33  1  0  0  0  0
 35 26  2  0  0  0  0
 36 35  1  0  0  0  0
M  END
