5,6
 OpenBabel05122313053D

 38 39  0  0  1  0  0  0  0  0999 V2000
    4.5088    2.7851   -1.5272 O   0  0  0  0  0  0  0  0  0  0  0  0
    3.0154    3.7220   -0.0994 O   0  0  0  0  0  0  0  0  0  0  0  0
   -5.3018    2.9482    0.1478 O   0  0  0  0  0  0  0  0  0  0  0  0
   -3.5818    4.1375   -0.7403 O   0  0  0  0  0  0  0  0  0  0  0  0
    0.8629   -0.6099   -0.8514 N   0  0  0  0  0  2  0  0  0  0  0  0
   -1.6518   -0.4455    0.1070 N   0  0  0  0  0  2  0  0  0  0  0  0
    0.3070    0.6283   -0.7828 C   0  0  2  0  0  3  0  0  0  0  0  0
    1.0914    1.7804   -0.9322 C   0  0  0  0  0  0  0  0  0  0  0  0
    0.6626    2.7761   -0.7672 H   0  0  0  0  0  0  0  0  0  0  0  0
    2.4712    1.6440   -1.1349 C   0  0  0  0  0  0  0  0  0  0  0  0
    3.3372    2.8328   -0.8820 C   0  0  0  0  0  0  0  0  0  0  0  0
    5.4533    3.8445   -1.2232 C   0  0  0  0  0  0  0  0  0  0  0  0
    5.6256    3.8527   -0.1264 H   0  0  0  0  0  0  0  0  0  0  0  0
    4.9844    4.8161   -1.4840 H   0  0  0  0  0  0  0  0  0  0  0  0
    6.7180    3.5794   -2.0098 C   0  0  0  0  0  0  0  0  0  0  0  0
    7.1657    2.6055   -1.7297 H   0  0  0  0  0  0  0  0  0  0  0  0
    7.4613    4.3738   -1.8017 H   0  0  0  0  0  0  0  0  0  0  0  0
    6.5166    3.5709   -3.0990 H   0  0  0  0  0  0  0  0  0  0  0  0
    3.0062    0.3608   -1.3379 C   0  0  0  0  0  0  0  0  0  0  0  0
    4.0793    0.2193   -1.5192 H   0  0  0  0  0  0  0  0  0  0  0  0
    2.1590   -0.7398   -1.1801 C   0  0  0  0  0  0  0  0  0  0  0  0
    2.5372   -1.7694   -1.2546 H   0  0  0  0  0  0  0  0  0  0  0  0
   -1.1205    0.6947   -0.4041 C   0  0  2  0  0  3  0  0  0  0  0  0
   -2.9378   -0.4703    0.4936 C   0  0  0  0  0  0  0  0  0  0  0  0
   -3.3034   -1.4306    0.8853 H   0  0  0  0  0  0  0  0  0  0  0  0
   -3.7680    0.6508    0.4018 C   0  0  0  0  0  0  0  0  0  0  0  0
   -4.8155    0.6016    0.7260 H   0  0  0  0  0  0  0  0  0  0  0  0
   -3.2342    1.8417   -0.1234 C   0  0  0  0  0  0  0  0  0  0  0  0
   -1.8931    1.8588   -0.5326 C   0  0  0  0  0  0  0  0  0  0  0  0
   -1.4846    2.7870   -0.9541 H   0  0  0  0  0  0  0  0  0  0  0  0
   -4.0321    3.1023   -0.2806 C   0  0  0  0  0  0  0  0  0  0  0  0
   -6.1552    4.1108    0.0288 C   0  0  0  0  0  0  0  0  0  0  0  0
   -6.1691    4.4301   -1.0346 H   0  0  0  0  0  0  0  0  0  0  0  0
   -5.6998    4.9430    0.6062 H   0  0  0  0  0  0  0  0  0  0  0  0
   -7.5296    3.7349    0.5392 C   0  0  0  0  0  0  0  0  0  0  0  0
   -7.9620    2.9048   -0.0536 H   0  0  0  0  0  0  0  0  0  0  0  0
   -8.2103    4.6055    0.4618 H   0  0  0  0  0  0  0  0  0  0  0  0
   -7.4897    3.4214    1.6011 H   0  0  0  0  0  0  0  0  0  0  0  0
  1 12  1  0  0  0  0
  1 11  1  0  0  0  0
  4 31  2  0  0  0  0
  5  7  1  0  0  0  0
  6 24  1  0  0  0  0
  7  8  1  1  0  0  0
  7 23  1  0  0  0  0
  8  9  1  0  0  0  0
 10  8  2  0  0  0  0
 10 11  1  0  0  0  0
 11  2  2  0  0  0  0
 12 13  1  0  0  0  0
 14 12  1  0  0  0  0
 15 17  1  0  0  0  0
 15 16  1  0  0  0  0
 15 12  1  0  0  0  0
 18 15  1  0  0  0  0
 19 21  2  0  0  0  0
 19 10  1  0  0  0  0
 20 19  1  0  0  0  0
 21  5  1  0  0  0  0
 22 21  1  0  0  0  0
 23 29  1  1  0  0  0
 23  6  1  0  0  0  0
 24 25  1  0  0  0  0
 26 24  2  0  0  0  0
 26 27  1  0  0  0  0
 28 26  1  0  0  0  0
 29 28  2  0  0  0  0
 30 29  1  0  0  0  0
 31 28  1  0  0  0  0
 31  3  1  0  0  0  0
 32  3  1  0  0  0  0
 32 35  1  0  0  0  0
 32 34  1  0  0  0  0
 33 32  1  0  0  0  0
 35 38  1  0  0  0  0
 36 35  1  0  0  0  0
 37 35  1  0  0  0  0
M  END
