1,2
 OpenBabel05122313053D

 36 35  0  0  0  0  0  0  0  0999 V2000
   -2.2926    1.4261   -0.5467 N   0  0  0  0  0  0  0  0  0  0  0  0
   -2.6850   -0.8837    1.1667 N   0  0  0  0  0  0  0  0  0  0  0  0
   -3.6220    1.1385    0.0432 C   0  0  0  0  0  0  0  0  0  0  0  0
   -4.2028    0.5622   -0.7016 H   0  0  0  0  0  0  0  0  0  0  0  0
   -4.2012    2.0694    0.2300 H   0  0  0  0  0  0  0  0  0  0  0  0
   -3.5041    0.3424    1.3420 C   0  0  0  0  0  0  0  0  0  0  0  0
   -3.0244    0.9640    2.1229 H   0  0  0  0  0  0  0  0  0  0  0  0
   -4.5205    0.0891    1.7220 H   0  0  0  0  0  0  0  0  0  0  0  0
   -1.5915    2.5537    0.1324 C   0  0  0  0  0  0  0  0  0  0  0  0
   -0.5558    2.5636   -0.2670 H   0  0  0  0  0  0  0  0  0  0  0  0
   -1.5050    2.2892    1.2073 H   0  0  0  0  0  0  0  0  0  0  0  0
   -2.2181    3.9400   -0.0162 C   0  0  0  0  0  0  0  0  0  0  0  0
   -2.2531    4.2714   -1.0723 H   0  0  0  0  0  0  0  0  0  0  0  0
   -1.6076    4.6781    0.5401 H   0  0  0  0  0  0  0  0  0  0  0  0
   -3.2452    3.9929    0.3966 H   0  0  0  0  0  0  0  0  0  0  0  0
   -2.3590    1.6176   -2.0236 C   0  0  0  0  0  0  0  0  0  0  0  0
   -1.3843    2.0504   -2.3284 H   0  0  0  0  0  0  0  0  0  0  0  0
   -3.1380    2.3722   -2.2776 H   0  0  0  0  0  0  0  0  0  0  0  0
   -2.5983    0.3219   -2.7894 C   0  0  0  0  0  0  0  0  0  0  0  0
   -3.5828   -0.1350   -2.5629 H   0  0  0  0  0  0  0  0  0  0  0  0
   -1.8059   -0.4285   -2.5800 H   0  0  0  0  0  0  0  0  0  0  0  0
   -2.5854    0.5235   -3.8785 H   0  0  0  0  0  0  0  0  0  0  0  0
   -2.1675   -1.3705    2.4764 C   0  0  0  0  0  0  0  0  0  0  0  0
   -1.8302   -2.4134    2.3255 H   0  0  0  0  0  0  0  0  0  0  0  0
   -3.0084   -1.4104    3.2080 H   0  0  0  0  0  0  0  0  0  0  0  0
   -1.0077   -0.5484    3.0194 C   0  0  0  0  0  0  0  0  0  0  0  0
   -1.2764    0.5115    3.2040 H   0  0  0  0  0  0  0  0  0  0  0  0
   -0.1515   -0.5769    2.3134 H   0  0  0  0  0  0  0  0  0  0  0  0
   -0.6642   -0.9682    3.9852 H   0  0  0  0  0  0  0  0  0  0  0  0
   -3.4722   -1.9542    0.4819 C   0  0  0  0  0  0  0  0  0  0  0  0
   -4.0623   -1.4693   -0.3206 H   0  0  0  0  0  0  0  0  0  0  0  0
   -4.2112   -2.3724    1.2051 H   0  0  0  0  0  0  0  0  0  0  0  0
   -2.6126   -3.0537   -0.1278 C   0  0  0  0  0  0  0  0  0  0  0  0
   -3.2612   -3.7894   -0.6426 H   0  0  0  0  0  0  0  0  0  0  0  0
   -2.0308   -3.6108    0.6329 H   0  0  0  0  0  0  0  0  0  0  0  0
   -1.8973   -2.6498   -0.8760 H   0  0  0  0  0  0  0  0  0  0  0  0
  1  3  1  0  0  0  0
  1  9  1  0  0  0  0
  2  6  1  0  0  0  0
  2 23  1  0  0  0  0
  3  5  1  0  0  0  0
  3  6  1  0  0  0  0
  4  3  1  0  0  0  0
  6  8  1  0  0  0  0
  6  7  1  0  0  0  0
  9 11  1  0  0  0  0
 10  9  1  0  0  0  0
 12  9  1  0  0  0  0
 12 15  1  0  0  0  0
 12 14  1  0  0  0  0
 13 12  1  0  0  0  0
 16  1  1  0  0  0  0
 17 16  1  0  0  0  0
 18 16  1  0  0  0  0
 19 21  1  0  0  0  0
 19 20  1  0  0  0  0
 19 16  1  0  0  0  0
 22 19  1  0  0  0  0
 23 26  1  0  0  0  0
 23 25  1  0  0  0  0
 24 23  1  0  0  0  0
 26 27  1  0  0  0  0
 26 29  1  0  0  0  0
 28 26  1  0  0  0  0
 30  2  1  0  0  0  0
 30 32  1  0  0  0  0
 31 30  1  0  0  0  0
 33 30  1  0  0  0  0
 33 35  1  0  0  0  0
 34 33  1  0  0  0  0
 36 33  1  0  0  0  0
M  END
