1,2
 OpenBabel05122313053D

 29 29  0  0  0  0  0  0  0  0999 V2000
   -0.1347    1.6349   -0.0192 N   0  0  0  0  0  2  0  0  0  0  0  0
    1.8644    0.4738   -1.0751 N   0  0  0  0  0  2  0  0  0  0  0  0
    0.9912    2.3258    0.0607 C   0  0  0  0  0  0  0  0  0  0  0  0
    1.0339    3.3345    0.5071 H   0  0  0  0  0  0  0  0  0  0  0  0
    2.1482    1.6977   -0.4845 C   0  0  0  0  0  0  0  0  0  0  0  0
    3.4586    2.2218   -0.4236 C   0  0  0  0  0  0  0  0  0  0  0  0
    3.6141    3.2015    0.0520 H   0  0  0  0  0  0  0  0  0  0  0  0
    4.5194    1.4929   -0.9541 C   0  0  0  0  0  0  0  0  0  0  0  0
    5.5486    1.8778   -0.9134 H   0  0  0  0  0  0  0  0  0  0  0  0
    4.2308    0.2495   -1.5606 C   0  0  0  0  0  0  0  0  0  0  0  0
    5.0243   -0.3607   -2.0153 H   0  0  0  0  0  0  0  0  0  0  0  0
    2.9152   -0.2083   -1.6066 C   0  0  0  0  0  0  0  0  0  0  0  0
    2.6669   -1.1500   -2.1129 H   0  0  0  0  0  0  0  0  0  0  0  0
   -1.3364    2.2949    0.4800 C   0  0  0  0  0  0  0  0  0  0  0  0
   -2.1811    2.0229   -0.1826 H   0  0  0  0  0  0  0  0  0  0  0  0
   -1.2096    3.3986    0.4053 H   0  0  0  0  0  0  0  0  0  0  0  0
   -1.7495    1.9669    1.9436 C   0  0  0  0  0  0  0  0  0  0  0  0
   -3.0034    2.8068    2.2480 C   0  0  0  0  0  0  0  0  0  0  0  0
   -3.8254    2.5693    1.5412 H   0  0  0  0  0  0  0  0  0  0  0  0
   -2.7934    3.8944    2.1760 H   0  0  0  0  0  0  0  0  0  0  0  0
   -3.3706    2.6006    3.2741 H   0  0  0  0  0  0  0  0  0  0  0  0
   -0.6273    2.3525    2.9214 C   0  0  0  0  0  0  0  0  0  0  0  0
   -0.9510    2.1778    3.9680 H   0  0  0  0  0  0  0  0  0  0  0  0
   -0.3583    3.4255    2.8272 H   0  0  0  0  0  0  0  0  0  0  0  0
    0.2882    1.7543    2.7490 H   0  0  0  0  0  0  0  0  0  0  0  0
   -2.0857    0.4757    2.0889 C   0  0  0  0  0  0  0  0  0  0  0  0
   -2.9713    0.2031    1.4809 H   0  0  0  0  0  0  0  0  0  0  0  0
   -2.3081    0.2254    3.1467 H   0  0  0  0  0  0  0  0  0  0  0  0
   -1.2415   -0.1521    1.7485 H   0  0  0  0  0  0  0  0  0  0  0  0
  1  3  1  0  0  0  0
  1 14  1  0  0  0  0
  2  5  1  0  0  0  0
  3  4  1  0  0  0  0
  5  6  1  0  0  0  0
  5  3  2  0  0  0  0
  6  7  1  0  0  0  0
  8  9  1  0  0  0  0
  8  6  2  0  0  0  0
 10  8  1  0  0  0  0
 11 10  1  0  0  0  0
 12 10  2  0  0  0  0
 12  2  1  0  0  0  0
 13 12  1  0  0  0  0
 14 17  1  0  0  0  0
 15 14  1  0  0  0  0
 16 14  1  0  0  0  0
 17 26  1  0  0  0  0
 17 18  1  0  0  0  0
 17 22  1  0  0  0  0
 18 21  1  0  0  0  0
 19 18  1  0  0  0  0
 20 18  1  0  0  0  0
 22 23  1  0  0  0  0
 24 22  1  0  0  0  0
 25 22  1  0  0  0  0
 26 28  1  0  0  0  0
 27 26  1  0  0  0  0
 29 26  1  0  0  0  0
M  END
