1,4
 OpenBabel05122313053D

 72 75  0  0  0  0  0  0  0  0999 V2000
    1.6822   -0.9289   -0.4441 N   0  0  0  0  0  2  0  0  0  0  0  0
    3.9402   -0.4604    0.0827 N   0  0  0  0  0  0  0  0  0  0  0  0
    3.1919   -2.6814   -0.0864 N   0  0  0  0  0  0  0  0  0  0  0  0
   -1.6837   -0.9263    0.4441 N   0  0  0  0  0  2  0  0  0  0  0  0
   -3.1958   -2.6766    0.0865 N   0  0  0  0  0  0  0  0  0  0  0  0
   -3.9411   -0.4546   -0.0826 N   0  0  0  0  0  0  0  0  0  0  0  0
    1.3485    0.2592   -1.1311 C   0  0  0  0  0  0  0  0  0  0  0  0
    1.9889    0.4826   -2.3880 C   0  0  0  0  0  0  0  0  0  0  0  0
    2.7687   -0.2288   -2.6960 H   0  0  0  0  0  0  0  0  0  0  0  0
    1.6109    1.5175   -3.2166 C   0  0  0  0  0  0  0  0  0  0  0  0
    2.1068    1.6643   -4.1887 H   0  0  0  0  0  0  0  0  0  0  0  0
    0.5458    2.3844   -2.8455 C   0  0  0  0  0  0  0  0  0  0  0  0
    0.1149    3.4367   -3.7044 C   0  0  0  0  0  0  0  0  0  0  0  0
    0.6207    3.5573   -4.6754 H   0  0  0  0  0  0  0  0  0  0  0  0
   -0.9119    4.2906   -3.3340 C   0  0  0  0  0  0  0  0  0  0  0  0
   -1.2348    5.0989   -4.0073 H   0  0  0  0  0  0  0  0  0  0  0  0
   -1.5429    4.1177   -2.0742 C   0  0  0  0  0  0  0  0  0  0  0  0
   -2.3535    4.7977   -1.7706 H   0  0  0  0  0  0  0  0  0  0  0  0
   -1.1460    3.1014   -1.2179 C   0  0  0  0  0  0  0  0  0  0  0  0
   -1.6405    2.9906   -0.2442 H   0  0  0  0  0  0  0  0  0  0  0  0
   -0.1003    2.1904   -1.5680 C   0  0  0  0  0  0  0  0  0  0  0  0
    0.3114    1.1170   -0.6900 C   0  0  0  0  0  0  0  0  0  0  0  0
   -1.3482    0.2614    1.1310 C   0  0  0  0  0  0  0  0  0  0  0  0
   -1.9883    0.4859    2.3879 C   0  0  0  0  0  0  0  0  0  0  0  0
   -2.7692   -0.2243    2.6960 H   0  0  0  0  0  0  0  0  0  0  0  0
   -1.6086    1.5202    3.2165 C   0  0  0  0  0  0  0  0  0  0  0  0
   -2.1043    1.6678    4.1885 H   0  0  0  0  0  0  0  0  0  0  0  0
   -0.5421    2.3854    2.8454 C   0  0  0  0  0  0  0  0  0  0  0  0
   -0.1096    3.4370    3.7043 C   0  0  0  0  0  0  0  0  0  0  0  0
   -0.6152    3.5584    4.6752 H   0  0  0  0  0  0  0  0  0  0  0  0
    0.9187    4.2892    3.3339 C   0  0  0  0  0  0  0  0  0  0  0  0
    1.2428    5.0970    4.0072 H   0  0  0  0  0  0  0  0  0  0  0  0
    1.5495    4.1152    2.0741 C   0  0  0  0  0  0  0  0  0  0  0  0
    2.3613    4.7938    1.7705 H   0  0  0  0  0  0  0  0  0  0  0  0
    1.1510    3.0995    1.2179 C   0  0  0  0  0  0  0  0  0  0  0  0
    1.6453    2.9878    0.2442 H   0  0  0  0  0  0  0  0  0  0  0  0
    0.1037    2.1902    1.5679 C   0  0  0  0  0  0  0  0  0  0  0  0
   -0.3097    1.1175    0.6899 C   0  0  0  0  0  0  0  0  0  0  0  0
    2.9088   -1.3421   -0.1710 C   0  0  0  0  0  3  0  0  0  0  0  0
    3.6798    0.8262    0.6988 C   0  0  0  0  0  0  0  0  0  0  0  0
    2.7182    0.7893    1.2416 H   0  0  0  0  0  0  0  0  0  0  0  0
    3.6383    1.6559   -0.0421 H   0  0  0  0  0  0  0  0  0  0  0  0
    4.4853    1.0536    1.4295 H   0  0  0  0  0  0  0  0  0  0  0  0
    5.2877   -0.7015   -0.3952 C   0  0  0  0  0  0  0  0  0  0  0  0
    6.0245   -0.7498    0.4381 H   0  0  0  0  0  0  0  0  0  0  0  0
    5.6064    0.1153   -1.0825 H   0  0  0  0  0  0  0  0  0  0  0  0
    5.3185   -1.6582   -0.9477 H   0  0  0  0  0  0  0  0  0  0  0  0
    2.2944   -3.6488   -0.7021 C   0  0  0  0  0  0  0  0  0  0  0  0
    1.5065   -3.9666    0.0169 H   0  0  0  0  0  0  0  0  0  0  0  0
    2.8839   -4.5373   -1.0115 H   0  0  0  0  0  0  0  0  0  0  0  0
    1.7881   -3.2083   -1.5808 H   0  0  0  0  0  0  0  0  0  0  0  0
    3.9395   -3.1936    1.0567 C   0  0  0  0  0  0  0  0  0  0  0  0
    4.5089   -2.3796    1.5380 H   0  0  0  0  0  0  0  0  0  0  0  0
    4.6440   -3.9911    0.7403 H   0  0  0  0  0  0  0  0  0  0  0  0
    3.2282   -3.6013    1.8091 H   0  0  0  0  0  0  0  0  0  0  0  0
   -2.9109   -1.3377    0.1711 C   0  0  0  0  0  3  0  0  0  0  0  0
   -3.9442   -3.1878   -1.0566 C   0  0  0  0  0  0  0  0  0  0  0  0
   -4.6494   -3.9846   -0.7402 H   0  0  0  0  0  0  0  0  0  0  0  0
   -3.2335   -3.5961   -1.8092 H   0  0  0  0  0  0  0  0  0  0  0  0
   -4.5128   -2.3731   -1.5376 H   0  0  0  0  0  0  0  0  0  0  0  0
   -2.2993   -3.6451    0.7019 C   0  0  0  0  0  0  0  0  0  0  0  0
   -1.5120   -3.9638   -0.0173 H   0  0  0  0  0  0  0  0  0  0  0  0
   -2.8898   -4.5330    1.0113 H   0  0  0  0  0  0  0  0  0  0  0  0
   -1.7923   -3.2053    1.5805 H   0  0  0  0  0  0  0  0  0  0  0  0
   -3.6790    0.8316   -0.6987 C   0  0  0  0  0  0  0  0  0  0  0  0
   -3.6363    1.6613    0.0421 H   0  0  0  0  0  0  0  0  0  0  0  0
   -4.4842    1.0601   -1.4294 H   0  0  0  0  0  0  0  0  0  0  0  0
   -2.7175    0.7935   -1.2415 H   0  0  0  0  0  0  0  0  0  0  0  0
   -5.2890   -0.6938    0.3953 C   0  0  0  0  0  0  0  0  0  0  0  0
   -6.0258   -0.7412   -0.4381 H   0  0  0  0  0  0  0  0  0  0  0  0
   -5.6066    0.1233    1.0825 H   0  0  0  0  0  0  0  0  0  0  0  0
   -5.3211   -1.6505    0.9477 H   0  0  0  0  0  0  0  0  0  0  0  0
  1 39  1  0  0  0  0
  2 40  1  0  0  0  0
  3 52  1  0  0  0  0
  4 23  1  0  0  0  0
  5 56  1  0  0  0  0
  5 61  1  0  0  0  0
  6 56  1  0  0  0  0
  6 69  1  0  0  0  0
  7 22  1  0  0  0  0
  7  1  1  0  0  0  0
  8  7  2  0  0  0  0
  9  8  1  0  0  0  0
 10 12  2  0  0  0  0
 10  8  1  0  0  0  0
 11 10  1  0  0  0  0
 12 21  1  0  0  0  0
 13 15  2  0  0  0  0
 13 12  1  0  0  0  0
 14 13  1  0  0  0  0
 15 17  1  0  0  0  0
 16 15  1  0  0  0  0
 17 18  1  0  0  0  0
 17 19  2  0  0  0  0
 19 20  1  0  0  0  0
 21 19  1  0  0  0  0
 21 22  2  0  0  0  0
 22 38  1  0  0  0  0
 23 24  1  0  0  0  0
 24 25  1  0  0  0  0
 24 26  2  0  0  0  0
 26 27  1  0  0  0  0
 28 26  1  0  0  0  0
 28 29  1  0  0  0  0
 29 30  1  0  0  0  0
 31 29  2  0  0  0  0
 31 32  1  0  0  0  0
 33 31  1  0  0  0  0
 34 33  1  0  0  0  0
 35 37  1  0  0  0  0
 35 33  2  0  0  0  0
 36 35  1  0  0  0  0
 37 28  2  0  0  0  0
 38 23  2  0  0  0  0
 38 37  1  0  0  0  0
 39  3  1  0  0  0  0
 39  2  1  0  0  0  0
 40 41  1  0  0  0  0
 40 43  1  0  0  0  0
 42 40  1  0  0  0  0
 44  2  1  0  0  0  0
 44 45  1  0  0  0  0
 46 44  1  0  0  0  0
 47 44  1  0  0  0  0
 48  3  1  0  0  0  0
 48 49  1  0  0  0  0
 50 48  1  0  0  0  0
 51 48  1  0  0  0  0
 52 53  1  0  0  0  0
 52 55  1  0  0  0  0
 54 52  1  0  0  0  0
 56  4  1  0  0  0  0
 57 58  1  0  0  0  0
 57  5  1  0  0  0  0
 59 57  1  0  0  0  0
 60 57  1  0  0  0  0
 61 63  1  0  0  0  0
 61 64  1  0  0  0  0
 62 61  1  0  0  0  0
 65  6  1  0  0  0  0
 65 66  1  0  0  0  0
 67 65  1  0  0  0  0
 68 65  1  0  0  0  0
 69 72  1  0  0  0  0
 69 71  1  0  0  0  0
 70 69  1  0  0  0  0
M  END
