7,8
 OpenBabel05122313053D

 54 57  0  0  0  0  0  0  0  0999 V2000
   -1.8655   -1.0948    0.8800 N   0  0  0  0  0  2  0  0  0  0  0  0
   -4.1404   -1.2576    1.4694 N   0  0  0  0  0  0  0  0  0  0  0  0
   -3.5744   -2.0313   -0.5693 N   0  0  0  0  0  0  0  0  0  0  0  0
   -1.8655    1.0950   -0.8801 N   0  0  0  0  0  2  0  0  0  0  0  0
   -3.5744    2.0314    0.5693 N   0  0  0  0  0  0  0  0  0  0  0  0
   -4.1404    1.2575   -1.4693 N   0  0  0  0  0  0  0  0  0  0  0  0
    1.6411   -1.2894   -0.1998 N   0  0  0  0  0  2  0  0  0  0  0  0
    1.6412    1.2895    0.1997 N   0  0  0  0  0  2  0  0  0  0  0  0
   -0.7239   -1.5813    0.2806 C   0  0  0  0  0  0  0  0  0  0  0  0
   -0.5406   -2.9776    0.0934 C   0  0  0  0  0  0  0  0  0  0  0  0
   -1.3915   -3.6479    0.2867 H   0  0  0  0  0  0  0  0  0  0  0  0
    0.7114   -3.4895   -0.2457 C   0  0  0  0  0  0  0  0  0  0  0  0
    0.8679   -4.5698   -0.3777 H   0  0  0  0  0  0  0  0  0  0  0  0
    1.8024   -2.6213   -0.3419 C   0  0  0  0  0  0  0  0  0  0  0  0
    2.8441   -2.9460   -0.4994 H   0  0  0  0  0  0  0  0  0  0  0  0
    0.3946   -0.7322   -0.0023 C   0  0  0  0  0  0  0  0  0  0  0  0
    0.3946    0.7323    0.0023 C   0  0  0  0  0  0  0  0  0  0  0  0
    1.8025    2.6214    0.3418 C   0  0  0  0  0  0  0  0  0  0  0  0
    2.8443    2.9459    0.4993 H   0  0  0  0  0  0  0  0  0  0  0  0
    0.7117    3.4896    0.2455 C   0  0  0  0  0  0  0  0  0  0  0  0
    0.8682    4.5699    0.3775 H   0  0  0  0  0  0  0  0  0  0  0  0
   -0.5404    2.9778   -0.0936 C   0  0  0  0  0  0  0  0  0  0  0  0
   -1.3913    3.6481   -0.2870 H   0  0  0  0  0  0  0  0  0  0  0  0
   -0.7238    1.5815   -0.2806 C   0  0  0  0  0  0  0  0  0  0  0  0
   -3.0759   -1.4635    0.5882 C   0  0  0  0  0  3  0  0  0  0  0  0
   -5.3148   -1.9654    0.9764 C   0  0  0  0  0  0  0  0  0  0  0  0
   -6.2538   -1.4195    1.2028 H   0  0  0  0  0  0  0  0  0  0  0  0
   -5.3882   -2.9778    1.4455 H   0  0  0  0  0  0  0  0  0  0  0  0
   -5.0309   -2.0685   -0.5253 C   0  0  0  0  0  0  0  0  0  0  0  0
   -5.4367   -2.9973   -0.9750 H   0  0  0  0  0  0  0  0  0  0  0  0
   -5.4496   -1.1955   -1.0817 H   0  0  0  0  0  0  0  0  0  0  0  0
   -3.9036   -1.2027    2.8963 C   0  0  0  0  0  0  0  0  0  0  0  0
   -3.9753   -2.2128    3.3655 H   0  0  0  0  0  0  0  0  0  0  0  0
   -4.6413   -0.5374    3.3896 H   0  0  0  0  0  0  0  0  0  0  0  0
   -2.8845   -0.8101    3.0659 H   0  0  0  0  0  0  0  0  0  0  0  0
   -2.8810   -2.0108   -1.8448 C   0  0  0  0  0  0  0  0  0  0  0  0
   -2.1130   -1.2140   -1.8453 H   0  0  0  0  0  0  0  0  0  0  0  0
   -3.6111   -1.7882   -2.6480 H   0  0  0  0  0  0  0  0  0  0  0  0
   -2.3927   -2.9822   -2.0724 H   0  0  0  0  0  0  0  0  0  0  0  0
   -3.0759    1.4636   -0.5882 C   0  0  0  0  0  3  0  0  0  0  0  0
   -5.0308    2.0684    0.5254 C   0  0  0  0  0  0  0  0  0  0  0  0
   -5.4368    2.9971    0.9751 H   0  0  0  0  0  0  0  0  0  0  0  0
   -5.4494    1.1953    1.0818 H   0  0  0  0  0  0  0  0  0  0  0  0
   -5.3148    1.9652   -0.9763 C   0  0  0  0  0  0  0  0  0  0  0  0
   -6.2538    1.4193   -1.2027 H   0  0  0  0  0  0  0  0  0  0  0  0
   -5.3883    2.9777   -1.4454 H   0  0  0  0  0  0  0  0  0  0  0  0
   -2.8809    2.0110    1.8448 C   0  0  0  0  0  0  0  0  0  0  0  0
   -2.1131    1.2139    1.8454 H   0  0  0  0  0  0  0  0  0  0  0  0
   -3.6110    1.7888    2.6481 H   0  0  0  0  0  0  0  0  0  0  0  0
   -2.3923    2.9823    2.0721 H   0  0  0  0  0  0  0  0  0  0  0  0
   -3.9036    1.2026   -2.8963 C   0  0  0  0  0  0  0  0  0  0  0  0
   -3.9752    2.2127   -3.3654 H   0  0  0  0  0  0  0  0  0  0  0  0
   -4.6415    0.5375   -3.3895 H   0  0  0  0  0  0  0  0  0  0  0  0
   -2.8846    0.8098   -3.0659 H   0  0  0  0  0  0  0  0  0  0  0  0
  2 32  1  0  0  0  0
  3 29  1  0  0  0  0
  3 25  1  0  0  0  0
  4 40  1  0  0  0  0
  4 24  1  0  0  0  0
  5 47  1  0  0  0  0
  6 44  1  0  0  0  0
  6 40  1  0  0  0  0
  7 16  1  0  0  0  0
  8 18  1  0  0  0  0
  9  1  1  0  0  0  0
 10  9  2  0  0  0  0
 10 11  1  0  0  0  0
 12 10  1  0  0  0  0
 13 12  1  0  0  0  0
 14 12  2  0  0  0  0
 14  7  1  0  0  0  0
 15 14  1  0  0  0  0
 16 17  2  0  0  0  0
 16  9  1  0  0  0  0
 17  8  1  0  0  0  0
 18 19  1  0  0  0  0
 20 18  2  0  0  0  0
 20 21  1  0  0  0  0
 22 20  1  0  0  0  0
 23 22  1  0  0  0  0
 24 22  2  0  0  0  0
 24 17  1  0  0  0  0
 25  1  1  0  0  0  0
 25  2  1  0  0  0  0
 26 27  1  0  0  0  0
 26 28  1  0  0  0  0
 26  2  1  0  0  0  0
 29 26  1  0  0  0  0
 30 29  1  0  0  0  0
 31 29  1  0  0  0  0
 32 35  1  0  0  0  0
 32 33  1  0  0  0  0
 32 34  1  0  0  0  0
 36  3  1  0  0  0  0
 37 36  1  0  0  0  0
 38 36  1  0  0  0  0
 39 36  1  0  0  0  0
 40  5  1  0  0  0  0
 41  5  1  0  0  0  0
 41 42  1  0  0  0  0
 41 43  1  0  0  0  0
 44 41  1  0  0  0  0
 45 44  1  0  0  0  0
 46 44  1  0  0  0  0
 47 48  1  0  0  0  0
 47 50  1  0  0  0  0
 47 49  1  0  0  0  0
 51  6  1  0  0  0  0
 52 51  1  0  0  0  0
 53 51  1  0  0  0  0
 54 51  1  0  0  0  0
M  END
