2,3
 OpenBabel05122313053D

 32 35  0  0  1  0  0  0  0  0999 V2000
   -1.3099    2.4124    0.2818 O   0  0  0  0  0  0  0  0  0  0  0  0
   -1.0409    0.4922   -0.8778 N   0  0  0  0  0  2  0  0  0  0  0  0
    1.7513   -0.4669   -0.0133 N   0  0  0  0  0  2  0  0  0  0  0  0
    4.4220    0.3532   -0.2433 C   0  0  0  0  0  0  0  0  0  0  0  0
    5.4690    0.6846   -0.3155 H   0  0  0  0  0  0  0  0  0  0  0  0
    2.6565    3.6530   -0.3219 C   0  0  0  0  0  0  0  0  0  0  0  0
    2.8825    4.7286   -0.3559 H   0  0  0  0  0  0  0  0  0  0  0  0
    3.6791    2.7154   -0.3424 C   0  0  0  0  0  3  0  0  0  0  0  0
    4.7330    3.0266   -0.4009 H   0  0  0  0  0  0  0  0  0  0  0  0
   -2.4045    0.6747   -0.6344 C   0  0  0  0  0  0  0  0  0  0  0  0
    4.1045   -0.9830   -0.1048 C   0  0  0  0  0  0  0  0  0  0  0  0
    4.8855   -1.7552   -0.0652 H   0  0  0  0  0  0  0  0  0  0  0  0
    0.9722    1.8609   -0.2651 C   0  0  0  0  0  0  0  0  0  0  0  0
   -3.7916    2.3756    0.5064 C   0  0  0  0  0  0  0  0  0  0  0  0
   -3.8783    3.3122    1.0732 H   0  0  0  0  0  0  0  0  0  0  0  0
    3.3853    1.3263   -0.2703 C   0  0  0  0  0  0  0  0  0  0  0  0
    1.3164    3.2225   -0.2863 C   0  0  0  0  0  0  0  0  0  0  0  0
    0.5035    3.9614   -0.3061 H   0  0  0  0  0  0  0  0  0  0  0  0
    2.0184    0.8696   -0.1944 C   0  0  0  0  0  0  0  0  0  0  0  0
   -2.5588    1.8770    0.0874 C   0  0  0  0  0  0  0  0  0  0  0  0
   -0.4409    1.5269   -0.3077 C   0  0  1  0  0  3  0  0  0  0  0  0
    2.7486   -1.3726    0.0415 C   0  0  0  0  0  0  0  0  0  0  0  0
   -3.5262   -0.1044   -0.9600 C   0  0  0  0  0  0  0  0  0  0  0  0
   -3.4191   -1.0619   -1.4852 H   0  0  0  0  0  0  0  0  0  0  0  0
    2.3730   -2.8001    0.2844 C   0  0  0  0  0  0  0  0  0  0  0  0
    1.5643   -2.8367    1.0515 H   0  0  0  0  0  0  0  0  0  0  0  0
    3.2431   -3.3988    0.6154 H   0  0  0  0  0  0  0  0  0  0  0  0
    1.9584   -3.2578   -0.6367 H   0  0  0  0  0  0  0  0  0  0  0  0
   -4.7755    0.3800   -0.5511 C   0  0  0  0  0  0  0  0  0  0  0  0
   -5.6789   -0.2045   -0.7788 H   0  0  0  0  0  0  0  0  0  0  0  0
   -4.9071    1.5937    0.1646 C   0  0  0  0  0  0  0  0  0  0  0  0
   -5.9088    1.9296    0.4711 H   0  0  0  0  0  0  0  0  0  0  0  0
  2 10  1  0  0  0  0
  2 21  1  0  0  0  0
  3 22  1  0  0  0  0
  4 11  1  0  0  0  0
  5  4  1  0  0  0  0
  6 17  2  0  0  0  0
  7  6  1  0  0  0  0
  8  6  1  0  0  0  0
  8 16  1  0  0  0  0
  9  8  1  0  0  0  0
 10 20  1  0  0  0  0
 11 12  1  0  0  0  0
 11 22  2  0  0  0  0
 13 19  2  0  0  0  0
 14 15  1  0  0  0  0
 16  4  2  0  0  0  0
 16 19  1  0  0  0  0
 17 13  1  0  0  0  0
 18 17  1  0  0  0  0
 19  3  1  0  0  0  0
 20  1  1  0  0  0  0
 20 14  2  0  0  0  0
 21 13  1  6  0  0  0
 21  1  1  0  0  0  0
 22 25  1  0  0  0  0
 23 10  2  0  0  0  0
 23 29  1  0  0  0  0
 24 23  1  0  0  0  0
 25 27  1  0  0  0  0
 25 26  1  0  0  0  0
 28 25  1  0  0  0  0
 29 31  2  0  0  0  0
 30 29  1  0  0  0  0
 31 32  1  0  0  0  0
 31 14  1  0  0  0  0
M  END
