1,18
 OpenBabel05122313053D

 34 35  0  0  0  0  0  0  0  0999 V2000
   -1.2558    0.7363    0.1164 N   0  0  0  0  0  2  0  0  0  0  0  0
   -2.6675    0.5422    0.1284 C   0  0  0  0  0  0  0  0  0  0  0  0
   -3.3625    0.5062    1.3506 C   0  0  0  0  0  0  0  0  0  0  0  0
   -4.7447    0.2672    1.3497 C   0  0  0  0  0  0  0  0  0  0  0  0
   -5.4273    0.0573    0.1411 C   0  0  0  0  0  0  0  0  0  0  0  0
   -4.7209    0.0798   -1.0727 C   0  0  0  0  0  0  0  0  0  0  0  0
   -3.3400    0.3189   -1.0883 C   0  0  0  0  0  0  0  0  0  0  0  0
   -0.7332    1.9315   -0.0234 C   0  0  0  0  0  0  0  0  0  0  0  0
   -1.5149    3.2003   -0.1705 C   0  0  0  0  0  0  0  0  0  0  0  0
   -2.8102    0.6533    2.2904 H   0  0  0  0  0  0  0  0  0  0  0  0
   -5.2901    0.2397    2.3051 H   0  0  0  0  0  0  0  0  0  0  0  0
   -6.5106   -0.1346    0.1460 H   0  0  0  0  0  0  0  0  0  0  0  0
   -5.2481   -0.0995   -2.0218 H   0  0  0  0  0  0  0  0  0  0  0  0
   -2.7512    0.3006   -2.0174 H   0  0  0  0  0  0  0  0  0  0  0  0
   -1.2252    3.9391    0.6048 H   0  0  0  0  0  0  0  0  0  0  0  0
   -2.6013    3.0153   -0.0995 H   0  0  0  0  0  0  0  0  0  0  0  0
   -1.3025    3.6681   -1.1547 H   0  0  0  0  0  0  0  0  0  0  0  0
    1.2558    0.7362    0.1164 N   0  0  0  0  0  2  0  0  0  0  0  0
    0.7333    1.9315   -0.0233 C   0  0  0  0  0  0  0  0  0  0  0  0
    2.6676    0.5421    0.1285 C   0  0  0  0  0  0  0  0  0  0  0  0
    1.5150    3.2003   -0.1705 C   0  0  0  0  0  0  0  0  0  0  0  0
    3.3626    0.5065    1.3507 C   0  0  0  0  0  0  0  0  0  0  0  0
    3.3400    0.3185   -1.0882 C   0  0  0  0  0  0  0  0  0  0  0  0
    1.2259    3.9388    0.6053 H   0  0  0  0  0  0  0  0  0  0  0  0
    2.6015    3.0151   -0.1001 H   0  0  0  0  0  0  0  0  0  0  0  0
    1.3021    3.6685   -1.1544 H   0  0  0  0  0  0  0  0  0  0  0  0
    4.7448    0.2674    1.3498 C   0  0  0  0  0  0  0  0  0  0  0  0
    2.8104    0.6538    2.2904 H   0  0  0  0  0  0  0  0  0  0  0  0
    4.7209    0.0795   -1.0726 C   0  0  0  0  0  0  0  0  0  0  0  0
    2.7512    0.3000   -2.0173 H   0  0  0  0  0  0  0  0  0  0  0  0
    5.4274    0.0572    0.1412 C   0  0  0  0  0  0  0  0  0  0  0  0
    5.2902    0.2402    2.3052 H   0  0  0  0  0  0  0  0  0  0  0  0
    5.2481   -0.1001   -2.0217 H   0  0  0  0  0  0  0  0  0  0  0  0
    6.5106   -0.1347    0.1462 H   0  0  0  0  0  0  0  0  0  0  0  0
  1  2  1  0  0  0  0
  2  3  1  0  0  0  0
  3 10  1  0  0  0  0
  4  3  2  0  0  0  0
  4 11  1  0  0  0  0
  5 12  1  0  0  0  0
  5  4  1  0  0  0  0
  6  5  2  0  0  0  0
  7  6  1  0  0  0  0
  7  2  2  0  0  0  0
  8 19  2  0  0  0  0
  8  1  1  0  0  0  0
  9 16  1  0  0  0  0
  9  8  1  0  0  0  0
  9 15  1  0  0  0  0
 13  6  1  0  0  0  0
 14  7  1  0  0  0  0
 17  9  1  0  0  0  0
 18 20  1  0  0  0  0
 19 18  1  0  0  0  0
 20 22  1  0  0  0  0
 21 25  1  0  0  0  0
 21 19  1  0  0  0  0
 21 24  1  0  0  0  0
 22 28  1  0  0  0  0
 23 29  1  0  0  0  0
 23 20  2  0  0  0  0
 26 21  1  0  0  0  0
 27 22  2  0  0  0  0
 27 32  1  0  0  0  0
 29 31  2  0  0  0  0
 30 23  1  0  0  0  0
 31 34  1  0  0  0  0
 31 27  1  0  0  0  0
 33 29  1  0  0  0  0
M  END
