1,2
 OpenBabel05122313053D

 30 31  0  0  1  0  0  0  0  0999 V2000
    1.6019    0.7862   -1.1927 N   0  0  0  0  0  2  0  0  0  0  0  0
   -0.0640    1.8564    0.5727 N   0  0  0  0  0  2  0  0  0  0  0  0
    2.4670    0.1864   -2.0259 C   0  0  0  0  0  3  0  0  0  0  0  0
    3.5606    0.8592   -2.5913 C   0  0  0  0  0  0  0  0  0  0  0  0
    3.7619    2.2121   -2.2781 C   0  0  0  0  0  0  0  0  0  0  0  0
    2.8660    2.8435   -1.4057 C   0  0  0  0  0  0  0  0  0  0  0  0
    1.7972    2.0993   -0.8755 C   0  0  0  0  0  0  0  0  0  0  0  0
    0.8178    2.6575    0.0567 C   0  0  0  0  0  3  0  0  0  0  0  0
   -1.0683    2.3689    1.5206 C   0  0  1  0  0  0  0  0  0  0  0  0
   -2.4090    1.7333    1.1777 C   0  0  0  0  0  0  0  0  0  0  0  0
   -2.7420    0.4368    1.6189 C   0  0  0  0  0  0  0  0  0  0  0  0
   -3.9590   -0.1517    1.2456 C   0  0  0  0  0  0  0  0  0  0  0  0
   -4.8589    0.5469    0.4247 C   0  0  0  0  0  0  0  0  0  0  0  0
   -4.5370    1.8394   -0.0185 C   0  0  0  0  0  0  0  0  0  0  0  0
   -3.3167    2.4247    0.3537 C   0  0  0  0  0  0  0  0  0  0  0  0
   -0.5901    2.1009    2.9529 C   0  0  0  0  0  0  0  0  0  0  0  0
    2.2804   -0.8771   -2.2416 H   0  0  0  0  0  0  0  0  0  0  0  0
    4.2405    0.3233   -3.2685 H   0  0  0  0  0  0  0  0  0  0  0  0
    4.6082    2.7679   -2.7076 H   0  0  0  0  0  0  0  0  0  0  0  0
    2.9877    3.9012   -1.1290 H   0  0  0  0  0  0  0  0  0  0  0  0
    0.8515    3.7381    0.3015 H   0  0  0  0  0  0  0  0  0  0  0  0
   -1.1642    3.4700    1.3857 H   0  0  0  0  0  0  0  0  0  0  0  0
   -2.0494   -0.1224    2.2645 H   0  0  0  0  0  0  0  0  0  0  0  0
   -4.2110   -1.1609    1.6046 H   0  0  0  0  0  0  0  0  0  0  0  0
   -5.8169    0.0874    0.1391 H   0  0  0  0  0  0  0  0  0  0  0  0
   -5.2421    2.3983   -0.6520 H   0  0  0  0  0  0  0  0  0  0  0  0
   -3.0679    3.4406    0.0069 H   0  0  0  0  0  0  0  0  0  0  0  0
    0.3491    2.6509    3.1573 H   0  0  0  0  0  0  0  0  0  0  0  0
   -0.3948    1.0230    3.1153 H   0  0  0  0  0  0  0  0  0  0  0  0
   -1.3584    2.4287    3.6793 H   0  0  0  0  0  0  0  0  0  0  0  0
  1  7  1  0  0  0  0
  2  9  1  0  0  0  0
  3  1  1  0  0  0  0
  4  5  2  0  0  0  0
  4  3  1  0  0  0  0
  5  6  1  0  0  0  0
  6 20  1  0  0  0  0
  6  7  2  0  0  0  0
  7  8  1  0  0  0  0
  8 21  1  0  0  0  0
  8  2  1  0  0  0  0
  9 22  1  6  0  0  0
  9 16  1  0  0  0  0
 10  9  1  0  0  0  0
 10 11  1  0  0  0  0
 11 23  1  0  0  0  0
 12 24  1  0  0  0  0
 12 11  2  0  0  0  0
 13 12  1  0  0  0  0
 14 15  1  0  0  0  0
 14 13  2  0  0  0  0
 15 10  2  0  0  0  0
 16 29  1  0  0  0  0
 16 28  1  0  0  0  0
 16 30  1  0  0  0  0
 17  3  1  0  0  0  0
 18  4  1  0  0  0  0
 19  5  1  0  0  0  0
 25 13  1  0  0  0  0
 26 14  1  0  0  0  0
 27 15  1  0  0  0  0
M  END
