1,3
 OpenBabel05122313053D

 28 30  0  0  1  0  0  0  0  0999 V2000
   -1.2499    1.2770    0.0360 N   0  0  0  0  0  2  0  0  0  0  0  0
    1.2151    1.4347   -0.1281 N   0  0  0  0  0  0  0  0  0  0  0  0
    0.6907   -0.8351   -0.0423 N   0  0  0  0  0  2  0  0  0  0  0  0
    1.0362   -1.8083    0.0243 H   0  0  0  0  0  0  0  0  0  0  0  0
   -2.3828    2.0266    0.0920 C   0  0  0  0  0  3  0  0  0  0  0  0
   -3.3083    1.4321    0.1688 H   0  0  0  0  0  0  0  0  0  0  0  0
   -2.3757    3.4287    0.0342 C   0  0  0  0  0  0  0  0  0  0  0  0
   -3.3395    3.9545    0.0844 H   0  0  0  0  0  0  0  0  0  0  0  0
   -1.1754    4.1336   -0.1005 C   0  0  0  0  0  0  0  0  0  0  0  0
   -1.1543    5.2311   -0.1661 H   0  0  0  0  0  0  0  0  0  0  0  0
    0.0103    3.3801   -0.1558 C   0  0  0  0  0  0  0  0  0  0  0  0
    1.4050    3.7009   -0.3107 C   0  0  0  0  0  0  0  0  0  0  0  0
    1.8394    4.6987   -0.4311 H   0  0  0  0  0  0  0  0  0  0  0  0
    2.0989    2.5178   -0.3013 C   0  0  0  0  0  0  0  0  0  0  0  0
    3.1682    2.3256   -0.4197 H   0  0  0  0  0  0  0  0  0  0  0  0
   -0.0849    1.9581   -0.0628 C   0  0  0  0  0  0  0  0  0  0  0  0
    1.6045    0.0917   -0.0643 C   0  0  2  0  0  3  0  0  0  0  0  0
    3.0457   -0.2557   -0.0099 C   0  0  0  0  0  0  0  0  0  0  0  0
    3.5505   -1.2249   -0.9046 C   0  0  0  0  0  0  0  0  0  0  0  0
    2.8885   -1.6508   -1.6737 H   0  0  0  0  0  0  0  0  0  0  0  0
    4.8904   -1.6273   -0.8243 C   0  0  0  0  0  0  0  0  0  0  0  0
    5.2763   -2.3768   -1.5311 H   0  0  0  0  0  0  0  0  0  0  0  0
    5.7367   -1.0727    0.1486 C   0  0  0  0  0  0  0  0  0  0  0  0
    6.7883   -1.3902    0.2101 H   0  0  0  0  0  0  0  0  0  0  0  0
    5.2377   -0.1160    1.0481 C   0  0  0  0  0  0  0  0  0  0  0  0
    5.8931    0.3072    1.8239 H   0  0  0  0  0  0  0  0  0  0  0  0
    3.9001    0.2931    0.9734 C   0  0  0  0  0  0  0  0  0  0  0  0
    3.5065    1.0216    1.6979 H   0  0  0  0  0  0  0  0  0  0  0  0
  1  5  1  0  0  0  0
  2 17  1  0  0  0  0
  2 16  1  0  0  0  0
  3  4  1  0  0  0  0
  5  6  1  0  0  0  0
  7  8  1  0  0  0  0
  7  5  1  0  0  0  0
  9  7  2  0  0  0  0
 10  9  1  0  0  0  0
 11  9  1  0  0  0  0
 11 16  2  0  0  0  0
 12 14  2  0  0  0  0
 12 11  1  0  0  0  0
 13 12  1  0  0  0  0
 14  2  1  0  0  0  0
 15 14  1  0  0  0  0
 16  1  1  0  0  0  0
 17  3  1  1  0  0  0
 17 18  1  0  0  0  0
 18 27  1  0  0  0  0
 19 21  1  0  0  0  0
 19 18  2  0  0  0  0
 20 19  1  0  0  0  0
 21 23  2  0  0  0  0
 22 21  1  0  0  0  0
 23 24  1  0  0  0  0
 23 25  1  0  0  0  0
 25 26  1  0  0  0  0
 27 25  2  0  0  0  0
 27 28  1  0  0  0  0
M  END
