2,3
 OpenBabel05122313053D

 46 50  0  0  1  0  0  0  0  0999 V2000
    0.4270   -2.7948   -0.5890 N   0  0  0  0  0  0  0  0  0  0  0  0
   -0.0428   -0.0229   -0.6437 N   0  0  0  0  0  2  0  0  0  0  0  0
    2.1473    1.7011   -0.6784 N   0  0  0  0  0  2  0  0  0  0  0  0
   -3.3428   -2.2825   -1.7154 N   0  0  0  0  0  0  0  0  0  0  0  0
   -2.5837    0.9463   -0.4600 N   0  0  0  0  0  0  0  0  0  0  0  0
   -0.7758    3.8449    0.6390 N   0  0  0  0  0  0  0  0  0  0  0  0
    0.8032   -4.0195   -0.1860 C   0  0  0  0  0  0  0  0  0  0  0  0
    1.7768   -4.3776   -0.5615 H   0  0  0  0  0  0  0  0  0  0  0  0
    0.0319   -4.8077    0.6776 C   0  0  0  0  0  0  0  0  0  0  0  0
    0.3866   -5.8018    0.9849 H   0  0  0  0  0  0  0  0  0  0  0  0
   -1.1793   -4.2805    1.1499 C   0  0  0  0  0  0  0  0  0  0  0  0
   -1.8053   -4.8509    1.8522 H   0  0  0  0  0  0  0  0  0  0  0  0
   -1.5770   -3.0044    0.7388 C   0  0  0  0  0  0  0  0  0  0  0  0
   -2.4918   -2.5410    1.1362 H   0  0  0  0  0  0  0  0  0  0  0  0
   -0.7429   -2.2859   -0.1446 C   0  0  0  0  0  0  0  0  0  0  0  0
   -1.0622   -0.8817   -0.5110 C   0  0  1  0  0  3  0  0  0  0  0  0
   -2.3926   -0.3628   -0.6237 C   0  0  0  0  0  0  0  0  0  0  0  0
   -3.5683   -1.2127   -0.9252 C   0  0  0  0  0  0  0  0  0  0  0  0
   -4.3862   -3.0637   -2.0196 C   0  0  0  0  0  0  0  0  0  0  0  0
   -4.1756   -3.9305   -2.6711 H   0  0  0  0  0  0  0  0  0  0  0  0
   -5.6920   -2.8259   -1.5539 C   0  0  0  0  0  0  0  0  0  0  0  0
   -6.5120   -3.5045   -1.8324 H   0  0  0  0  0  0  0  0  0  0  0  0
   -5.9147   -1.7171   -0.7236 C   0  0  0  0  0  0  0  0  0  0  0  0
   -6.9177   -1.5087   -0.3215 H   0  0  0  0  0  0  0  0  0  0  0  0
   -4.8352   -0.8872   -0.3991 C   0  0  0  0  0  0  0  0  0  0  0  0
   -4.9309   -0.0329    0.2835 H   0  0  0  0  0  0  0  0  0  0  0  0
   -1.5498    1.7929   -0.3703 C   0  0  0  0  0  0  0  0  0  0  0  0
   -1.8280    3.1518    0.1588 C   0  0  0  0  0  0  0  0  0  0  0  0
   -3.1515    3.6394    0.2085 C   0  0  0  0  0  0  0  0  0  0  0  0
   -3.9670    3.0196   -0.1880 H   0  0  0  0  0  0  0  0  0  0  0  0
   -3.3757    4.8986    0.7768 C   0  0  0  0  0  0  0  0  0  0  0  0
   -4.3949    5.3100    0.8340 H   0  0  0  0  0  0  0  0  0  0  0  0
   -2.2822    5.6225    1.2747 C   0  0  0  0  0  0  0  0  0  0  0  0
   -2.4133    6.6134    1.7341 H   0  0  0  0  0  0  0  0  0  0  0  0
   -1.0025    5.0464    1.1799 C   0  0  0  0  0  0  0  0  0  0  0  0
   -0.1185    5.5825    1.5685 H   0  0  0  0  0  0  0  0  0  0  0  0
   -0.2428    1.3037   -0.6836 C   0  0  0  0  0  0  0  0  0  0  0  0
    0.9274    2.1438   -1.0534 C   0  0  2  0  0  3  0  0  0  0  0  0
    0.7877    3.3091   -1.8336 C   0  0  0  0  0  0  0  0  0  0  0  0
   -0.2108    3.6328   -2.1571 H   0  0  0  0  0  0  0  0  0  0  0  0
    1.9311    4.0265   -2.1938 C   0  0  0  0  0  0  0  0  0  0  0  0
    1.8425    4.9357   -2.8072 H   0  0  0  0  0  0  0  0  0  0  0  0
    3.1894    3.5706   -1.7689 C   0  0  0  0  0  0  0  0  0  0  0  0
    4.1127    4.1086   -2.0258 H   0  0  0  0  0  0  0  0  0  0  0  0
    3.2520    2.3922   -1.0164 C   0  0  0  0  0  0  0  0  0  0  0  0
    4.2076    1.9641   -0.6706 H   0  0  0  0  0  0  0  0  0  0  0  0
  1  7  2  0  0  0  0
  1 15  1  0  0  0  0
  2 16  1  0  0  0  0
  4 18  1  0  0  0  0
  5 27  1  0  0  0  0
  6 35  1  0  0  0  0
  7  9  1  0  0  0  0
  8  7  1  0  0  0  0
  9 10  1  0  0  0  0
  9 11  2  0  0  0  0
 11 12  1  0  0  0  0
 13 14  1  0  0  0  0
 13 11  1  0  0  0  0
 15 13  2  0  0  0  0
 16 15  1  1  0  0  0
 17 16  1  0  0  0  0
 17  5  2  0  0  0  0
 18 17  1  0  0  0  0
 18 25  2  0  0  0  0
 19  4  2  0  0  0  0
 19 21  1  0  0  0  0
 20 19  1  0  0  0  0
 21 23  2  0  0  0  0
 22 21  1  0  0  0  0
 23 25  1  0  0  0  0
 23 24  1  0  0  0  0
 25 26  1  0  0  0  0
 27 28  1  0  0  0  0
 28 29  1  0  0  0  0
 28  6  2  0  0  0  0
 29 31  2  0  0  0  0
 30 29  1  0  0  0  0
 31 32  1  0  0  0  0
 31 33  1  0  0  0  0
 33 34  1  0  0  0  0
 35 33  2  0  0  0  0
 35 36  1  0  0  0  0
 37  2  1  0  0  0  0
 37 27  2  0  0  0  0
 38 37  1  6  0  0  0
 38  3  1  0  0  0  0
 39 38  1  0  0  0  0
 40 39  1  0  0  0  0
 41 39  2  0  0  0  0
 41 43  1  0  0  0  0
 42 41  1  0  0  0  0
 43 45  2  0  0  0  0
 44 43  1  0  0  0  0
 45  3  1  0  0  0  0
 45 46  1  0  0  0  0
M  END
