1,2
 OpenBabel05122313053D

 37 38  0  0  0  0  0  0  0  0999 V2000
   -1.6494    0.7317   -0.6041 N   0  0  0  0  0  0  0  0  0  0  0  0
    1.6494    0.7317   -0.6041 N   0  0  0  0  0  0  0  0  0  0  0  0
   -3.9033   -1.5901   -0.2813 S   0  0  0  0  0  0  0  0  0  0  0  0
    3.9033   -1.5901   -0.2813 S   0  0  0  0  0  0  0  0  0  0  0  0
   -3.3048   -0.3791    0.9490 C   0  0  0  0  0  0  0  0  0  0  0  0
   -4.1571   -0.1557    1.6197 H   0  0  0  0  0  0  0  0  0  0  0  0
   -2.5009   -0.8480    1.5555 H   0  0  0  0  0  0  0  0  0  0  0  0
   -2.8236    0.9125    0.3042 C   0  0  0  0  0  0  0  0  0  0  0  0
   -3.6554    1.3793   -0.2743 H   0  0  0  0  0  0  0  0  0  0  0  0
   -2.4915    1.6185    1.0945 H   0  0  0  0  0  0  0  0  0  0  0  0
   -2.3509   -1.6084   -1.2416 C   0  0  0  0  0  0  0  0  0  0  0  0
   -1.5478   -2.0596   -0.6209 H   0  0  0  0  0  0  0  0  0  0  0  0
   -2.5267   -2.2561   -2.1226 H   0  0  0  0  0  0  0  0  0  0  0  0
   -1.9513   -0.2154   -1.7101 C   0  0  0  0  0  0  0  0  0  0  0  0
   -1.0443   -0.2939   -2.3436 H   0  0  0  0  0  0  0  0  0  0  0  0
   -2.7647    0.2168   -2.3411 H   0  0  0  0  0  0  0  0  0  0  0  0
   -1.3017    2.0726   -1.1516 C   0  0  0  0  0  0  0  0  0  0  0  0
   -1.2311    2.7517   -0.2778 H   0  0  0  0  0  0  0  0  0  0  0  0
   -2.1498    2.4202   -1.7881 H   0  0  0  0  0  0  0  0  0  0  0  0
    0.0000    2.1640   -1.9521 C   0  0  0  0  0  0  0  0  0  0  0  0
   -0.0000    1.4653   -2.8143 H   0  0  0  0  0  0  0  0  0  0  0  0
   -0.0000    3.1726   -2.4151 H   0  0  0  0  0  0  0  0  0  0  0  0
    1.3017    2.0726   -1.1516 C   0  0  0  0  0  0  0  0  0  0  0  0
    2.1498    2.4202   -1.7881 H   0  0  0  0  0  0  0  0  0  0  0  0
    1.2311    2.7517   -0.2778 H   0  0  0  0  0  0  0  0  0  0  0  0
    2.8236    0.9125    0.3042 C   0  0  0  0  0  0  0  0  0  0  0  0
    2.4915    1.6185    1.0945 H   0  0  0  0  0  0  0  0  0  0  0  0
    3.6554    1.3792   -0.2743 H   0  0  0  0  0  0  0  0  0  0  0  0
    3.3048   -0.3791    0.9490 C   0  0  0  0  0  0  0  0  0  0  0  0
    2.5009   -0.8480    1.5555 H   0  0  0  0  0  0  0  0  0  0  0  0
    4.1571   -0.1558    1.6197 H   0  0  0  0  0  0  0  0  0  0  0  0
    2.3509   -1.6084   -1.2417 C   0  0  0  0  0  0  0  0  0  0  0  0
    2.5267   -2.2561   -2.1226 H   0  0  0  0  0  0  0  0  0  0  0  0
    1.5478   -2.0596   -0.6209 H   0  0  0  0  0  0  0  0  0  0  0  0
    1.9513   -0.2154   -1.7101 C   0  0  0  0  0  0  0  0  0  0  0  0
    2.7647    0.2168   -2.3411 H   0  0  0  0  0  0  0  0  0  0  0  0
    1.0443   -0.2939   -2.3436 H   0  0  0  0  0  0  0  0  0  0  0  0
  1  8  1  0  0  0  0
  2 26  1  0  0  0  0
  3  5  1  0  0  0  0
  4 29  1  0  0  0  0
  5  7  1  0  0  0  0
  5  6  1  0  0  0  0
  8  5  1  0  0  0  0
  8 10  1  0  0  0  0
  9  8  1  0  0  0  0
 11 12  1  0  0  0  0
 11  3  1  0  0  0  0
 13 11  1  0  0  0  0
 14 11  1  0  0  0  0
 14  1  1  0  0  0  0
 15 14  1  0  0  0  0
 16 14  1  0  0  0  0
 17  1  1  0  0  0  0
 17 18  1  0  0  0  0
 19 17  1  0  0  0  0
 20 23  1  0  0  0  0
 20 17  1  0  0  0  0
 21 20  1  0  0  0  0
 22 20  1  0  0  0  0
 23  2  1  0  0  0  0
 23 25  1  0  0  0  0
 24 23  1  0  0  0  0
 26 29  1  0  0  0  0
 26 27  1  0  0  0  0
 28 26  1  0  0  0  0
 29 30  1  0  0  0  0
 29 31  1  0  0  0  0
 32 34  1  0  0  0  0
 32  4  1  0  0  0  0
 33 32  1  0  0  0  0
 35 32  1  0  0  0  0
 35  2  1  0  0  0  0
 36 35  1  0  0  0  0
 37 35  1  0  0  0  0
M  END
