1,2
 OpenBabel05122313053D

 34 36  0  0  0  0  0  0  0  0999 V2000
   -1.2498    1.0693   -0.2167 N   0  0  0  0  0  2  0  0  0  0  0  0
    1.2498    1.0694    0.2166 N   0  0  0  0  0  2  0  0  0  0  0  0
   -2.6360    0.8678   -0.4328 C   0  0  0  0  0  0  0  0  0  0  0  0
   -3.0584    0.1801   -1.5896 C   0  0  0  0  0  0  0  0  0  0  0  0
   -2.2950   -0.1463   -2.3096 H   0  0  0  0  0  0  0  0  0  0  0  0
   -4.4220   -0.0744   -1.7873 C   0  0  0  0  0  0  0  0  0  0  0  0
   -4.7478   -0.6047   -2.6953 H   0  0  0  0  0  0  0  0  0  0  0  0
   -5.3701    0.3380   -0.8350 C   0  0  0  0  0  0  0  0  0  0  0  0
   -6.4391    0.1295   -0.9921 H   0  0  0  0  0  0  0  0  0  0  0  0
   -4.9462    1.0142    0.3208 C   0  0  0  0  0  0  0  0  0  0  0  0
   -5.6813    1.3301    1.0768 H   0  0  0  0  0  0  0  0  0  0  0  0
   -3.5854    1.2820    0.5247 C   0  0  0  0  0  0  0  0  0  0  0  0
   -3.2393    1.7927    1.4352 H   0  0  0  0  0  0  0  0  0  0  0  0
   -0.7150    2.3113   -0.1333 C   0  0  0  0  0  0  0  0  0  0  0  0
   -1.3971    3.5538   -0.3006 C   0  0  0  0  0  0  0  0  0  0  0  0
   -2.4688    3.5522   -0.5421 H   0  0  0  0  0  0  0  0  0  0  0  0
   -0.6964    4.7417   -0.1576 C   0  0  0  0  0  0  0  0  0  0  0  0
   -1.2207    5.7006   -0.2862 H   0  0  0  0  0  0  0  0  0  0  0  0
    0.6963    4.7418    0.1570 C   0  0  0  0  0  0  0  0  0  0  0  0
    1.2205    5.7007    0.2856 H   0  0  0  0  0  0  0  0  0  0  0  0
    1.3970    3.5539    0.3002 C   0  0  0  0  0  0  0  0  0  0  0  0
    2.4687    3.5524    0.5418 H   0  0  0  0  0  0  0  0  0  0  0  0
    0.7150    2.3113    0.1331 C   0  0  0  0  0  0  0  0  0  0  0  0
    2.6361    0.8680    0.4325 C   0  0  0  0  0  0  0  0  0  0  0  0
    3.5853    1.2823   -0.5252 C   0  0  0  0  0  0  0  0  0  0  0  0
    3.2390    1.7930   -1.4356 H   0  0  0  0  0  0  0  0  0  0  0  0
    4.9461    1.0146   -0.3216 C   0  0  0  0  0  0  0  0  0  0  0  0
    5.6811    1.3306   -1.0776 H   0  0  0  0  0  0  0  0  0  0  0  0
    5.3703    0.3383    0.8341 C   0  0  0  0  0  0  0  0  0  0  0  0
    6.4394    0.1298    0.9910 H   0  0  0  0  0  0  0  0  0  0  0  0
    4.4224   -0.0742    1.7865 C   0  0  0  0  0  0  0  0  0  0  0  0
    4.7484   -0.6046    2.6945 H   0  0  0  0  0  0  0  0  0  0  0  0
    3.0587    0.1802    1.5891 C   0  0  0  0  0  0  0  0  0  0  0  0
    2.2956   -0.1463    2.3092 H   0  0  0  0  0  0  0  0  0  0  0  0
  1 14  1  0  0  0  0
  2 24  1  0  0  0  0
  3  1  1  0  0  0  0
  3 12  1  0  0  0  0
  4  3  2  0  0  0  0
  5  4  1  0  0  0  0
  6  4  1  0  0  0  0
  6  8  2  0  0  0  0
  7  6  1  0  0  0  0
  8 10  1  0  0  0  0
  9  8  1  0  0  0  0
 10 12  2  0  0  0  0
 10 11  1  0  0  0  0
 12 13  1  0  0  0  0
 14 23  1  0  0  0  0
 15 17  1  0  0  0  0
 15 14  2  0  0  0  0
 16 15  1  0  0  0  0
 17 19  2  0  0  0  0
 18 17  1  0  0  0  0
 19 20  1  0  0  0  0
 19 21  1  0  0  0  0
 21 22  1  0  0  0  0
 23  2  1  0  0  0  0
 23 21  2  0  0  0  0
 24 33  1  0  0  0  0
 25 27  1  0  0  0  0
 25 24  2  0  0  0  0
 26 25  1  0  0  0  0
 27 29  2  0  0  0  0
 28 27  1  0  0  0  0
 29 30  1  0  0  0  0
 29 31  1  0  0  0  0
 31 32  1  0  0  0  0
 33 31  2  0  0  0  0
 33 34  1  0  0  0  0
M  END
