1,2
 OpenBabel05122313053D

 74 75  0  0  1  0  0  0  0  0999 V2000
    1.2229   -0.2000   -0.8237 N   0  0  0  0  0  2  0  0  0  0  0  0
   -1.3211    0.0834   -0.7599 N   0  0  0  0  0  2  0  0  0  0  0  0
    3.1911    1.1758   -0.3622 N   0  0  0  0  0  0  0  0  0  0  0  0
    3.4881   -1.0004   -0.5107 N   0  0  0  0  0  0  0  0  0  0  0  0
   -3.3806    1.3187   -0.3793 N   0  0  0  0  0  0  0  0  0  0  0  0
   -3.5544   -0.8712   -0.4536 N   0  0  0  0  0  0  0  0  0  0  0  0
    0.6479    0.1933   -2.1177 C   0  0  0  0  0  0  0  0  0  0  0  0
    1.1912   -0.2767   -2.9678 H   0  0  0  0  0  0  0  0  0  0  0  0
    0.6936    1.3002   -2.2731 H   0  0  0  0  0  0  0  0  0  0  0  0
   -0.8048   -0.2544   -2.0964 C   0  0  0  0  0  0  0  0  0  0  0  0
   -1.3819    0.2536   -2.9007 H   0  0  0  0  0  0  0  0  0  0  0  0
   -0.8510   -1.3525   -2.2986 H   0  0  0  0  0  0  0  0  0  0  0  0
    2.5425   -0.0124   -0.5954 C   0  0  1  0  0  3  0  0  0  0  0  0
    4.5513    0.9330   -0.1411 C   0  0  0  0  0  0  0  0  0  0  0  0
    4.7369   -0.4364   -0.2294 C   0  0  0  0  0  0  0  0  0  0  0  0
    2.4443    2.4479   -0.2711 C   0  0  0  0  0  0  0  0  0  0  0  0
    1.3881    2.1038   -0.2760 H   0  0  0  0  0  0  0  0  0  0  0  0
    2.6717    3.1639    1.0629 C   0  0  0  0  0  0  0  0  0  0  0  0
    2.5741    2.4620    1.9132 H   0  0  0  0  0  0  0  0  0  0  0  0
    1.9005    3.9500    1.1828 H   0  0  0  0  0  0  0  0  0  0  0  0
    3.6584    3.6609    1.1225 H   0  0  0  0  0  0  0  0  0  0  0  0
    2.6860    3.3428   -1.4897 C   0  0  0  0  0  0  0  0  0  0  0  0
    3.7181    3.7456   -1.5134 H   0  0  0  0  0  0  0  0  0  0  0  0
    1.9937    4.2073   -1.4599 H   0  0  0  0  0  0  0  0  0  0  0  0
    2.5082    2.7937   -2.4347 H   0  0  0  0  0  0  0  0  0  0  0  0
    5.5684    1.9893    0.1354 C   0  0  0  0  0  0  0  0  0  0  0  0
    6.5852    1.5775   -0.0010 H   0  0  0  0  0  0  0  0  0  0  0  0
    5.5077    2.3752    1.1738 H   0  0  0  0  0  0  0  0  0  0  0  0
    5.4671    2.8537   -0.5490 H   0  0  0  0  0  0  0  0  0  0  0  0
    6.0006   -1.2119   -0.0630 C   0  0  0  0  0  0  0  0  0  0  0  0
    6.8665   -0.5250   -0.0751 H   0  0  0  0  0  0  0  0  0  0  0  0
    6.1505   -1.9492   -0.8756 H   0  0  0  0  0  0  0  0  0  0  0  0
    6.0323   -1.7631    0.8991 H   0  0  0  0  0  0  0  0  0  0  0  0
    3.1299   -2.4166   -0.7369 C   0  0  0  0  0  0  0  0  0  0  0  0
    2.0206   -2.3780   -0.7307 H   0  0  0  0  0  0  0  0  0  0  0  0
    3.5894   -2.8928   -2.1178 C   0  0  0  0  0  0  0  0  0  0  0  0
    3.2003   -2.2314   -2.9167 H   0  0  0  0  0  0  0  0  0  0  0  0
    3.2088   -3.9162   -2.3049 H   0  0  0  0  0  0  0  0  0  0  0  0
    4.6939   -2.9278   -2.2038 H   0  0  0  0  0  0  0  0  0  0  0  0
    3.5842   -3.3270    0.4062 C   0  0  0  0  0  0  0  0  0  0  0  0
    4.6685   -3.5457    0.3767 H   0  0  0  0  0  0  0  0  0  0  0  0
    3.0536   -4.2961    0.3288 H   0  0  0  0  0  0  0  0  0  0  0  0
    3.3420   -2.8846    1.3920 H   0  0  0  0  0  0  0  0  0  0  0  0
   -2.6559    0.1678   -0.5570 C   0  0  2  0  0  3  0  0  0  0  0  0
   -4.7240    1.0045   -0.1537 C   0  0  0  0  0  0  0  0  0  0  0  0
   -4.8383   -0.3724   -0.2128 C   0  0  0  0  0  0  0  0  0  0  0  0
   -2.8434    2.6993   -0.4241 C   0  0  0  0  0  0  0  0  0  0  0  0
   -3.7439    3.3398   -0.3610 H   0  0  0  0  0  0  0  0  0  0  0  0
   -2.1543    3.0059   -1.7564 C   0  0  0  0  0  0  0  0  0  0  0  0
   -1.9507    4.0928   -1.8205 H   0  0  0  0  0  0  0  0  0  0  0  0
   -2.7958    2.7283   -2.6158 H   0  0  0  0  0  0  0  0  0  0  0  0
   -1.1923    2.4672   -1.8389 H   0  0  0  0  0  0  0  0  0  0  0  0
   -1.9601    2.9921    0.7901 C   0  0  0  0  0  0  0  0  0  0  0  0
   -1.0758    2.3217    0.7931 H   0  0  0  0  0  0  0  0  0  0  0  0
   -2.5164    2.8413    1.7363 H   0  0  0  0  0  0  0  0  0  0  0  0
   -1.6197    4.0458    0.7577 H   0  0  0  0  0  0  0  0  0  0  0  0
   -5.7756    2.0337    0.0872 C   0  0  0  0  0  0  0  0  0  0  0  0
   -6.7549    1.5455    0.2417 H   0  0  0  0  0  0  0  0  0  0  0  0
   -5.8868    2.7325   -0.7681 H   0  0  0  0  0  0  0  0  0  0  0  0
   -5.5665    2.6409    0.9924 H   0  0  0  0  0  0  0  0  0  0  0  0
   -6.0669   -1.2073   -0.0665 C   0  0  0  0  0  0  0  0  0  0  0  0
   -6.1010   -1.7487    0.9006 H   0  0  0  0  0  0  0  0  0  0  0  0
   -6.1562   -1.9598   -0.8745 H   0  0  0  0  0  0  0  0  0  0  0  0
   -6.9644   -0.5641   -0.1167 H   0  0  0  0  0  0  0  0  0  0  0  0
   -3.1109   -2.2763   -0.5651 C   0  0  0  0  0  0  0  0  0  0  0  0
   -2.0090   -2.1882   -0.4482 H   0  0  0  0  0  0  0  0  0  0  0  0
   -3.4289   -2.8549   -1.9473 C   0  0  0  0  0  0  0  0  0  0  0  0
   -4.5209   -2.9586   -2.1076 H   0  0  0  0  0  0  0  0  0  0  0  0
   -2.9807   -3.8634   -2.0434 H   0  0  0  0  0  0  0  0  0  0  0  0
   -3.0202   -2.2191   -2.7561 H   0  0  0  0  0  0  0  0  0  0  0  0
   -3.6268   -3.1546    0.5788 C   0  0  0  0  0  0  0  0  0  0  0  0
   -3.5509   -2.6359    1.5538 H   0  0  0  0  0  0  0  0  0  0  0  0
   -3.0087   -4.0719    0.6327 H   0  0  0  0  0  0  0  0  0  0  0  0
   -4.6750   -3.4766    0.4333 H   0  0  0  0  0  0  0  0  0  0  0  0
  3 16  1  0  0  0  0
  3 14  1  0  0  0  0
  4 15  1  0  0  0  0
  5 45  1  0  0  0  0
  6 46  1  0  0  0  0
  7 10  1  0  0  0  0
  7  1  1  0  0  0  0
  8  7  1  0  0  0  0
  9  7  1  0  0  0  0
 10  2  1  0  0  0  0
 11 10  1  0  0  0  0
 12 10  1  0  0  0  0
 13  1  1  1  0  0  0
 13  4  1  0  0  0  0
 13  3  1  0  0  0  0
 14 26  1  0  0  0  0
 15 14  2  0  0  0  0
 15 30  1  0  0  0  0
 16 18  1  0  0  0  0
 17 16  1  0  0  0  0
 18 21  1  0  0  0  0
 18 20  1  0  0  0  0
 18 19  1  0  0  0  0
 22 24  1  0  0  0  0
 22 16  1  0  0  0  0
 23 22  1  0  0  0  0
 25 22  1  0  0  0  0
 26 28  1  0  0  0  0
 27 26  1  0  0  0  0
 29 26  1  0  0  0  0
 30 33  1  0  0  0  0
 31 30  1  0  0  0  0
 32 30  1  0  0  0  0
 34 35  1  0  0  0  0
 34  4  1  0  0  0  0
 34 40  1  0  0  0  0
 36 34  1  0  0  0  0
 37 36  1  0  0  0  0
 38 36  1  0  0  0  0
 39 36  1  0  0  0  0
 40 43  1  0  0  0  0
 41 40  1  0  0  0  0
 42 40  1  0  0  0  0
 44  2  1  1  0  0  0
 44  6  1  0  0  0  0
 44  5  1  0  0  0  0
 45 57  1  0  0  0  0
 46 45  2  0  0  0  0
 46 61  1  0  0  0  0
 47  5  1  0  0  0  0
 47 48  1  0  0  0  0
 47 53  1  0  0  0  0
 49 47  1  0  0  0  0
 50 49  1  0  0  0  0
 51 49  1  0  0  0  0
 52 49  1  0  0  0  0
 53 54  1  0  0  0  0
 53 55  1  0  0  0  0
 56 53  1  0  0  0  0
 57 58  1  0  0  0  0
 57 60  1  0  0  0  0
 59 57  1  0  0  0  0
 61 62  1  0  0  0  0
 63 61  1  0  0  0  0
 64 61  1  0  0  0  0
 65  6  1  0  0  0  0
 65 66  1  0  0  0  0
 65 71  1  0  0  0  0
 67 65  1  0  0  0  0
 68 67  1  0  0  0  0
 69 67  1  0  0  0  0
 70 67  1  0  0  0  0
 71 73  1  0  0  0  0
 71 72  1  0  0  0  0
 74 71  1  0  0  0  0
M  END
