2,4
 OpenBabel05122313053D

 34 36  0  0  1  0  0  0  0  0999 V2000
   -3.0163    1.6744   -1.2691 O   0  0  0  0  0  0  0  0  0  0  0  0
    0.0259   -0.3814    1.4120 N   0  0  0  0  0  2  0  0  0  0  0  0
   -1.6284    0.9751    0.4069 N   0  0  0  0  0  0  0  0  0  0  0  0
    0.4459    2.0885    0.2321 N   0  0  0  0  0  2  0  0  0  0  0  0
    0.4548   -1.2009    2.4030 C   0  0  0  0  0  3  0  0  0  0  0  0
    1.5127   -1.4936    2.3543 H   0  0  0  0  0  0  0  0  0  0  0  0
   -0.3919   -1.6204    3.4318 C   0  0  0  0  0  0  0  0  0  0  0  0
   -0.0059   -2.3002    4.2038 H   0  0  0  0  0  0  0  0  0  0  0  0
   -1.7111   -1.1433    3.4695 C   0  0  0  0  0  0  0  0  0  0  0  0
   -2.3947   -1.4399    4.2782 H   0  0  0  0  0  0  0  0  0  0  0  0
   -2.1393   -0.2607    2.4720 C   0  0  0  0  0  0  0  0  0  0  0  0
   -3.1526    0.1620    2.4656 H   0  0  0  0  0  0  0  0  0  0  0  0
   -1.2478    0.0861    1.4463 C   0  0  0  0  0  0  0  0  0  0  0  0
   -0.8983    2.1975    0.3438 C   0  0  2  0  0  3  0  0  0  0  0  0
   -1.5373    3.4428    0.4271 C   0  0  0  0  0  0  0  0  0  0  0  0
   -2.6301    3.4840    0.5049 H   0  0  0  0  0  0  0  0  0  0  0  0
   -0.7538    4.6018    0.4013 C   0  0  0  0  0  0  0  0  0  0  0  0
   -1.2308    5.5912    0.4573 H   0  0  0  0  0  0  0  0  0  0  0  0
    0.6425    4.4813    0.3307 C   0  0  0  0  0  0  0  0  0  0  0  0
    1.2961    5.3645    0.3357 H   0  0  0  0  0  0  0  0  0  0  0  0
    1.2106    3.2080    0.2630 C   0  0  0  0  0  0  0  0  0  0  0  0
    2.2968    3.0402    0.2485 H   0  0  0  0  0  0  0  0  0  0  0  0
   -2.7017    0.7720   -0.5024 C   0  0  0  0  0  0  0  0  0  0  0  0
   -3.4002   -0.5516   -0.5116 C   0  0  0  0  0  0  0  0  0  0  0  0
   -4.7582   -0.5290   -0.9009 C   0  0  0  0  0  0  0  0  0  0  0  0
   -5.2257    0.4403   -1.1259 H   0  0  0  0  0  0  0  0  0  0  0  0
   -5.4865   -1.7197   -1.0013 C   0  0  0  0  0  0  0  0  0  0  0  0
   -6.5474   -1.6888   -1.2898 H   0  0  0  0  0  0  0  0  0  0  0  0
   -4.8607   -2.9512   -0.7460 C   0  0  0  0  0  0  0  0  0  0  0  0
   -5.4307   -3.8882   -0.8332 H   0  0  0  0  0  0  0  0  0  0  0  0
   -3.5026   -2.9866   -0.3906 C   0  0  0  0  0  0  0  0  0  0  0  0
   -3.0053   -3.9512   -0.2105 H   0  0  0  0  0  0  0  0  0  0  0  0
   -2.7755   -1.7953   -0.2667 C   0  0  0  0  0  0  0  0  0  0  0  0
   -1.7125   -1.8473    0.0027 H   0  0  0  0  0  0  0  0  0  0  0  0
  1 23  2  0  0  0  0
  2 13  1  0  0  0  0
  2  5  1  0  0  0  0
  3 13  1  0  0  0  0
  4 21  1  0  0  0  0
  4 14  1  0  0  0  0
  5  7  1  0  0  0  0
  6  5  1  0  0  0  0
  7  9  2  0  0  0  0
  7  8  1  0  0  0  0
  9 10  1  0  0  0  0
 11  9  1  0  0  0  0
 12 11  1  0  0  0  0
 13 11  2  0  0  0  0
 14  3  1  1  0  0  0
 14 15  1  0  0  0  0
 15 16  1  0  0  0  0
 17 15  2  0  0  0  0
 17 18  1  0  0  0  0
 19 20  1  0  0  0  0
 19 17  1  0  0  0  0
 21 19  2  0  0  0  0
 22 21  1  0  0  0  0
 23  3  1  0  0  0  0
 24 23  1  0  0  0  0
 24 33  1  0  0  0  0
 25 24  2  0  0  0  0
 26 25  1  0  0  0  0
 27 25  1  0  0  0  0
 27 29  2  0  0  0  0
 28 27  1  0  0  0  0
 29 31  1  0  0  0  0
 30 29  1  0  0  0  0
 31 33  2  0  0  0  0
 31 32  1  0  0  0  0
 33 34  1  0  0  0  0
M  END
