1,14
 OpenBabel05122313053D

 28 29  0  0  0  0  0  0  0  0999 V2000
    2.1533   -1.9315   -0.3275 N   0  0  0  0  0  2  0  0  0  0  0  0
    3.4346   -1.5072   -0.3715 C   0  0  0  0  0  3  0  0  0  0  0  0
    3.5833   -0.4182   -0.4216 H   0  0  0  0  0  0  0  0  0  0  0  0
    4.5005   -2.4094   -0.3560 C   0  0  0  0  0  0  0  0  0  0  0  0
    5.5325   -2.0336   -0.3891 H   0  0  0  0  0  0  0  0  0  0  0  0
    4.2212   -3.7834   -0.3067 C   0  0  0  0  0  0  0  0  0  0  0  0
    5.0388   -4.5194   -0.3017 H   0  0  0  0  0  0  0  0  0  0  0  0
    2.8873   -4.2125   -0.2730 C   0  0  0  0  0  0  0  0  0  0  0  0
    2.6369   -5.2825   -0.2409 H   0  0  0  0  0  0  0  0  0  0  0  0
    1.8605   -3.2581   -0.2768 C   0  0  0  0  0  0  0  0  0  0  0  0
    0.4041   -3.6179   -0.1588 C   0  0  0  0  0  0  0  0  0  0  0  0
    0.2110   -4.6427   -0.5388 H   0  0  0  0  0  0  0  0  0  0  0  0
    0.1143   -3.5738    0.9143 H   0  0  0  0  0  0  0  0  0  0  0  0
   -0.4603   -2.6201   -0.8454 N   0  0  0  0  0  0  0  0  0  0  0  0
   -0.3409   -2.7167   -1.8651 H   0  0  0  0  0  0  0  0  0  0  0  0
   -1.9058   -2.7865   -0.5444 C   0  0  0  0  0  0  0  0  0  0  0  0
   -2.1579   -3.8710   -0.5672 H   0  0  0  0  0  0  0  0  0  0  0  0
   -2.4727   -2.3074   -1.3641 H   0  0  0  0  0  0  0  0  0  0  0  0
   -2.3087   -2.1800    0.7877 C   0  0  0  0  0  0  0  0  0  0  0  0
   -3.6460   -1.8261    1.0324 C   0  0  0  0  0  0  0  0  0  0  0  0
   -4.4204   -1.9922    0.2684 H   0  0  0  0  0  0  0  0  0  0  0  0
   -3.9617   -1.2319    2.2621 C   0  0  0  0  0  0  0  0  0  0  0  0
   -4.9954   -0.9261    2.4821 H   0  0  0  0  0  0  0  0  0  0  0  0
   -2.9393   -1.0202    3.1991 C   0  0  0  0  0  0  0  0  0  0  0  0
   -3.1439   -0.5474    4.1701 H   0  0  0  0  0  0  0  0  0  0  0  0
   -1.6371   -1.4194    2.8668 C   0  0  0  0  0  0  0  0  0  0  0  0
   -0.8005   -1.2625    3.5674 H   0  0  0  0  0  0  0  0  0  0  0  0
   -1.3285   -1.9876    1.6879 N   0  0  0  0  0  0  0  0  0  0  0  0
  1 10  1  0  0  0  0
  2  4  1  0  0  0  0
  2  1  1  0  0  0  0
  3  2  1  0  0  0  0
  4  6  2  0  0  0  0
  5  4  1  0  0  0  0
  6  7  1  0  0  0  0
  6  8  1  0  0  0  0
  8  9  1  0  0  0  0
 10  8  2  0  0  0  0
 10 11  1  0  0  0  0
 11 13  1  0  0  0  0
 12 11  1  0  0  0  0
 14 16  1  0  0  0  0
 14 11  1  0  0  0  0
 15 14  1  0  0  0  0
 16 19  1  0  0  0  0
 17 16  1  0  0  0  0
 18 16  1  0  0  0  0
 19 20  2  0  0  0  0
 19 28  1  0  0  0  0
 20 22  1  0  0  0  0
 21 20  1  0  0  0  0
 22 23  1  0  0  0  0
 22 24  2  0  0  0  0
 24 25  1  0  0  0  0
 26 24  1  0  0  0  0
 26 27  1  0  0  0  0
 28 26  2  0  0  0  0
M  END
