1,2
 OpenBabel05122313053D

 66 74  0  0  0  0  0  0  0  0999 V2000
    1.3410    1.7540    0.2599 N   0  0  0  0  0  2  0  0  0  0  0  0
   -1.3612    1.7456   -0.2577 N   0  0  0  0  0  2  0  0  0  0  0  0
   -4.2991   -0.0828    0.2072 C   0  0  0  0  0  0  0  0  0  0  0  0
   -4.8088    0.7476    1.2601 C   0  0  0  0  0  0  0  0  0  0  0  0
   -5.8035    0.2976    2.1082 C   0  0  0  0  0  0  0  0  0  0  0  0
   -6.3462   -1.0143    1.9672 C   0  0  0  0  0  0  0  0  0  0  0  0
   -5.8634   -1.8575    0.9868 C   0  0  0  0  0  0  0  0  0  0  0  0
   -4.8291   -1.4321    0.0910 C   0  0  0  0  0  0  0  0  0  0  0  0
   -4.2913   -2.3058   -0.8716 C   0  0  0  0  0  0  0  0  0  0  0  0
   -3.2692   -1.9060   -1.7515 C   0  0  0  0  0  0  0  0  0  0  0  0
   -2.7304   -2.8059   -2.7290 C   0  0  0  0  0  0  0  0  0  0  0  0
   -1.7678   -2.3902   -3.6271 C   0  0  0  0  0  0  0  0  0  0  0  0
   -1.3055   -1.0404   -3.5984 C   0  0  0  0  0  0  0  0  0  0  0  0
   -1.7800   -0.1486   -2.6534 C   0  0  0  0  0  0  0  0  0  0  0  0
   -2.7606   -0.5475   -1.6810 C   0  0  0  0  0  0  0  0  0  0  0  0
   -3.2714    0.3355   -0.6852 C   0  0  0  0  0  0  0  0  0  0  0  0
   -2.6704    1.6895   -0.5480 C   0  0  0  0  0  0  0  0  0  0  0  0
   -3.4261    2.8822   -0.7282 C   0  0  0  0  0  0  0  0  0  0  0  0
   -2.8014    4.1150   -0.5964 C   0  0  0  0  0  0  0  0  0  0  0  0
   -0.7280    2.9366   -0.1411 C   0  0  0  0  0  0  0  0  0  0  0  0
   -1.4149    4.1808   -0.2917 C   0  0  0  0  0  0  0  0  0  0  0  0
   -0.6964    5.4150   -0.1359 C   0  0  0  0  0  0  0  0  0  0  0  0
    0.6476    5.4193    0.1582 C   0  0  0  0  0  0  0  0  0  0  0  0
    1.3759    4.1897    0.3065 C   0  0  0  0  0  0  0  0  0  0  0  0
    0.6982    2.9412    0.1504 C   0  0  0  0  0  0  0  0  0  0  0  0
    2.7636    4.1337    0.6068 C   0  0  0  0  0  0  0  0  0  0  0  0
    3.3986    2.9051    0.7295 C   0  0  0  0  0  0  0  0  0  0  0  0
    2.6516    1.7079    0.5464 C   0  0  0  0  0  0  0  0  0  0  0  0
    2.7851   -0.5258    1.6835 C   0  0  0  0  0  0  0  0  0  0  0  0
    1.8180   -0.1345    2.6721 C   0  0  0  0  0  0  0  0  0  0  0  0
    1.3719   -1.0280    3.6292 C   0  0  0  0  0  0  0  0  0  0  0  0
    1.8534   -2.3712    3.6561 C   0  0  0  0  0  0  0  0  0  0  0  0
    2.8051   -2.7788    2.7426 C   0  0  0  0  0  0  0  0  0  0  0  0
    3.3118   -1.8777    1.7492 C   0  0  0  0  0  0  0  0  0  0  0  0
    4.3170   -2.2708    0.8470 C   0  0  0  0  0  0  0  0  0  0  0  0
    4.8213   -1.3967   -0.1329 C   0  0  0  0  0  0  0  0  0  0  0  0
    5.8369   -1.8150   -1.0532 C   0  0  0  0  0  0  0  0  0  0  0  0
    6.2872   -0.9701   -2.0474 C   0  0  0  0  0  0  0  0  0  0  0  0
    5.7304    0.3372   -2.1776 C   0  0  0  0  0  0  0  0  0  0  0  0
    4.7532    0.7805   -1.3061 C   0  0  0  0  0  0  0  0  0  0  0  0
    4.2759   -0.0529   -0.2404 C   0  0  0  0  0  0  0  0  0  0  0  0
    3.2655    0.3584    0.6741 C   0  0  0  0  0  0  0  0  0  0  0  0
   -4.3939    1.7554    1.4021 H   0  0  0  0  0  0  0  0  0  0  0  0
   -6.1783    0.9559    2.9062 H   0  0  0  0  0  0  0  0  0  0  0  0
   -7.1410   -1.3521    2.6484 H   0  0  0  0  0  0  0  0  0  0  0  0
   -6.2617   -2.8779    0.8779 H   0  0  0  0  0  0  0  0  0  0  0  0
   -4.6836   -3.3329   -0.9387 H   0  0  0  0  0  0  0  0  0  0  0  0
   -3.1213   -3.8347   -2.7625 H   0  0  0  0  0  0  0  0  0  0  0  0
   -1.3739   -3.0868   -4.3819 H   0  0  0  0  0  0  0  0  0  0  0  0
   -0.5725   -0.7005   -4.3454 H   0  0  0  0  0  0  0  0  0  0  0  0
   -1.4252    0.8909   -2.6687 H   0  0  0  0  0  0  0  0  0  0  0  0
   -4.4929    2.8091   -0.9819 H   0  0  0  0  0  0  0  0  0  0  0  0
   -3.3691    5.0478   -0.7355 H   0  0  0  0  0  0  0  0  0  0  0  0
   -1.2447    6.3616   -0.2540 H   0  0  0  0  0  0  0  0  0  0  0  0
    1.1890    6.3693    0.2810 H   0  0  0  0  0  0  0  0  0  0  0  0
    3.3244    5.0704    0.7481 H   0  0  0  0  0  0  0  0  0  0  0  0
    4.4672    2.8384    0.9770 H   0  0  0  0  0  0  0  0  0  0  0  0
    1.4479    0.8997    2.6865 H   0  0  0  0  0  0  0  0  0  0  0  0
    0.6475   -0.6960    4.3880 H   0  0  0  0  0  0  0  0  0  0  0  0
    1.4831   -3.0690    4.4217 H   0  0  0  0  0  0  0  0  0  0  0  0
    3.2099   -3.8022    2.7740 H   0  0  0  0  0  0  0  0  0  0  0  0
    4.7221   -3.2932    0.9097 H   0  0  0  0  0  0  0  0  0  0  0  0
    6.2479   -2.8311   -0.9514 H   0  0  0  0  0  0  0  0  0  0  0  0
    7.0676   -1.3026   -2.7476 H   0  0  0  0  0  0  0  0  0  0  0  0
    6.0807    0.9970   -2.9854 H   0  0  0  0  0  0  0  0  0  0  0  0
    4.3269    1.7850   -1.4379 H   0  0  0  0  0  0  0  0  0  0  0  0
  1 28  1  0  0  0  0
  2 20  1  0  0  0  0
  3  4  2  0  0  0  0
  4 43  1  0  0  0  0
  4  5  1  0  0  0  0
  5 44  1  0  0  0  0
  6  5  2  0  0  0  0
  6 45  1  0  0  0  0
  7  6  1  0  0  0  0
  8  3  1  0  0  0  0
  8  7  2  0  0  0  0
  9  8  1  0  0  0  0
 10 15  1  0  0  0  0
 10  9  2  0  0  0  0
 11 10  1  0  0  0  0
 12 13  1  0  0  0  0
 12 11  2  0  0  0  0
 13 14  2  0  0  0  0
 14 15  1  0  0  0  0
 15 16  2  0  0  0  0
 16 17  1  0  0  0  0
 16  3  1  0  0  0  0
 17  2  1  0  0  0  0
 18 19  1  0  0  0  0
 18 17  2  0  0  0  0
 19 21  2  0  0  0  0
 20 25  2  0  0  0  0
 21 20  1  0  0  0  0
 21 22  1  0  0  0  0
 22 23  2  0  0  0  0
 23 55  1  0  0  0  0
 23 24  1  0  0  0  0
 24 26  2  0  0  0  0
 25  1  1  0  0  0  0
 25 24  1  0  0  0  0
 26 27  1  0  0  0  0
 26 56  1  0  0  0  0
 27 57  1  0  0  0  0
 28 42  1  0  0  0  0
 28 27  2  0  0  0  0
 29 34  1  0  0  0  0
 29 30  2  0  0  0  0
 30 58  1  0  0  0  0
 30 31  1  0  0  0  0
 31 32  2  0  0  0  0
 31 59  1  0  0  0  0
 32 60  1  0  0  0  0
 33 61  1  0  0  0  0
 33 32  1  0  0  0  0
 34 33  2  0  0  0  0
 35 62  1  0  0  0  0
 35 34  1  0  0  0  0
 36 35  2  0  0  0  0
 37 63  1  0  0  0  0
 37 36  1  0  0  0  0
 38 37  2  0  0  0  0
 39 38  1  0  0  0  0
 39 40  2  0  0  0  0
 40 41  1  0  0  0  0
 41 36  1  0  0  0  0
 41 42  2  0  0  0  0
 42 29  1  0  0  0  0
 46  7  1  0  0  0  0
 47  9  1  0  0  0  0
 48 11  1  0  0  0  0
 49 12  1  0  0  0  0
 50 13  1  0  0  0  0
 51 14  1  0  0  0  0
 52 18  1  0  0  0  0
 53 19  1  0  0  0  0
 54 22  1  0  0  0  0
 64 38  1  0  0  0  0
 65 39  1  0  0  0  0
 66 40  1  0  0  0  0
M  END
