2,4
 OpenBabel05122313053D

 40 42  0  0  1  0  0  0  0  0999 V2000
   -0.8271   -0.3068   -0.3887 N   0  0  0  0  0  0  0  0  0  0  0  0
    0.4609    2.1707   -0.0909 N   0  0  0  0  0  2  0  0  0  0  0  0
   -3.4895   -1.8347   -0.1306 N   0  0  0  0  0  0  0  0  0  0  0  0
    1.5730   -1.7240    0.0163 N   0  0  0  0  0  2  0  0  0  0  0  0
   -1.2819    0.8405   -1.2126 C   0  0  0  0  0  0  0  0  0  0  0  0
   -2.3860    0.8581   -1.3360 H   0  0  0  0  0  0  0  0  0  0  0  0
   -0.8310    0.7220   -2.2190 H   0  0  0  0  0  0  0  0  0  0  0  0
   -0.7994    2.1585   -0.6402 C   0  0  2  0  0  3  0  0  0  0  0  0
   -1.5556    3.3316   -0.7226 C   0  0  0  0  0  0  0  0  0  0  0  0
   -2.5676    3.2872   -1.1502 H   0  0  0  0  0  0  0  0  0  0  0  0
   -1.0139    4.5464   -0.2732 C   0  0  0  0  0  0  0  0  0  0  0  0
   -1.5976    5.4760   -0.3393 H   0  0  0  0  0  0  0  0  0  0  0  0
    0.2815    4.5490    0.2580 C   0  0  0  0  0  0  0  0  0  0  0  0
    0.7540    5.4741    0.6167 H   0  0  0  0  0  0  0  0  0  0  0  0
    0.9850    3.3428    0.3381 C   0  0  0  0  0  0  0  0  0  0  0  0
    1.9998    3.2913    0.7559 H   0  0  0  0  0  0  0  0  0  0  0  0
   -1.6841   -0.4868    0.8243 C   0  0  0  0  0  0  0  0  0  0  0  0
   -1.2694   -1.3472    1.3849 H   0  0  0  0  0  0  0  0  0  0  0  0
   -1.5565    0.4107    1.4563 H   0  0  0  0  0  0  0  0  0  0  0  0
   -3.1568   -0.7092    0.5366 C   0  0  0  0  0  0  0  0  0  0  0  0
   -4.1202    0.2246    0.9633 C   0  0  0  0  0  0  0  0  0  0  0  0
   -3.8109    1.1325    1.5036 H   0  0  0  0  0  0  0  0  0  0  0  0
   -5.4749   -0.0295    0.7005 C   0  0  0  0  0  0  0  0  0  0  0  0
   -6.2509    0.6770    1.0314 H   0  0  0  0  0  0  0  0  0  0  0  0
   -5.8180   -1.1995    0.0111 C   0  0  0  0  0  0  0  0  0  0  0  0
   -6.8661   -1.4436   -0.2151 H   0  0  0  0  0  0  0  0  0  0  0  0
   -4.7856   -2.0650   -0.3885 C   0  0  0  0  0  0  0  0  0  0  0  0
   -5.0184   -2.9934   -0.9383 H   0  0  0  0  0  0  0  0  0  0  0  0
   -0.6163   -1.5897   -1.1204 C   0  0  0  0  0  0  0  0  0  0  0  0
   -0.3105   -1.3310   -2.1550 H   0  0  0  0  0  0  0  0  0  0  0  0
   -1.5571   -2.1775   -1.1569 H   0  0  0  0  0  0  0  0  0  0  0  0
    0.4961   -2.4063   -0.4981 C   0  0  1  0  0  3  0  0  0  0  0  0
    0.4747   -3.8049   -0.5040 C   0  0  0  0  0  0  0  0  0  0  0  0
   -0.4117   -4.3223   -0.8976 H   0  0  0  0  0  0  0  0  0  0  0  0
    1.5777   -4.5242   -0.0185 C   0  0  0  0  0  0  0  0  0  0  0  0
    1.5723   -5.6239   -0.0242 H   0  0  0  0  0  0  0  0  0  0  0  0
    2.6802   -3.8151    0.4732 C   0  0  0  0  0  0  0  0  0  0  0  0
    3.5710   -4.3308    0.8581 H   0  0  0  0  0  0  0  0  0  0  0  0
    2.6386   -2.4172    0.4810 C   0  0  0  0  0  0  0  0  0  0  0  0
    3.4726   -1.8161    0.8684 H   0  0  0  0  0  0  0  0  0  0  0  0
  1 17  1  0  0  0  0
  2 15  1  0  0  0  0
  3 20  1  0  0  0  0
  4 39  1  0  0  0  0
  5  1  1  0  0  0  0
  6  5  1  0  0  0  0
  7  5  1  0  0  0  0
  8  5  1  6  0  0  0
  8  2  1  0  0  0  0
  9  8  1  0  0  0  0
  9 11  2  0  0  0  0
 10  9  1  0  0  0  0
 11 13  1  0  0  0  0
 12 11  1  0  0  0  0
 13 15  2  0  0  0  0
 13 14  1  0  0  0  0
 15 16  1  0  0  0  0
 17 18  1  0  0  0  0
 17 19  1  0  0  0  0
 20 17  1  0  0  0  0
 20 21  2  0  0  0  0
 21 22  1  0  0  0  0
 23 21  1  0  0  0  0
 23 24  1  0  0  0  0
 25 23  2  0  0  0  0
 26 25  1  0  0  0  0
 27  3  2  0  0  0  0
 27 25  1  0  0  0  0
 28 27  1  0  0  0  0
 29  1  1  0  0  0  0
 30 29  1  0  0  0  0
 31 29  1  0  0  0  0
 32 29  1  6  0  0  0
 32  4  1  0  0  0  0
 33 32  1  0  0  0  0
 33 35  2  0  0  0  0
 34 33  1  0  0  0  0
 35 37  1  0  0  0  0
 36 35  1  0  0  0  0
 37 39  2  0  0  0  0
 37 38  1  0  0  0  0
 39 40  1  0  0  0  0
M  END
