13,21
 OpenBabel05122313053D

 28 28  0  0  0  0  0  0  0  0999 V2000
    1.6561    0.0690   -0.1019 C   0  0  0  0  0  3  0  0  0  0  0  0
    3.1368    0.0924    0.0554 C   0  0  0  0  0  0  0  0  0  0  0  0
    3.9641    0.6018   -0.9677 C   0  0  0  0  0  0  0  0  0  0  0  0
    3.5056    0.9812   -1.8933 H   0  0  0  0  0  0  0  0  0  0  0  0
    5.3573    0.6033   -0.8122 C   0  0  0  0  0  0  0  0  0  0  0  0
    5.9966    0.9967   -1.6170 H   0  0  0  0  0  0  0  0  0  0  0  0
    5.9361    0.1015    0.3650 C   0  0  0  0  0  0  0  0  0  0  0  0
    7.0300    0.1054    0.4857 H   0  0  0  0  0  0  0  0  0  0  0  0
    5.1181   -0.4061    1.3873 C   0  0  0  0  0  0  0  0  0  0  0  0
    5.5692   -0.7971    2.3119 H   0  0  0  0  0  0  0  0  0  0  0  0
    3.7247   -0.4146    1.2328 C   0  0  0  0  0  0  0  0  0  0  0  0
    3.0763   -0.8048    2.0322 H   0  0  0  0  0  0  0  0  0  0  0  0
    0.8817    1.1105   -0.3831 N   0  0  0  0  0  2  0  0  0  0  0  0
    1.2521    2.5087   -0.3366 C   0  0  0  0  0  0  0  0  0  0  0  0
    0.8603    2.9893   -1.2575 H   0  0  0  0  0  0  0  0  0  0  0  0
    2.3589    2.6090   -0.3455 H   0  0  0  0  0  0  0  0  0  0  0  0
    0.6700    3.2217    0.8852 C   0  0  0  0  0  0  0  0  0  0  0  0
   -0.4349    3.1446    0.8779 H   0  0  0  0  0  0  0  0  0  0  0  0
    0.9408    4.2970    0.8759 H   0  0  0  0  0  0  0  0  0  0  0  0
    1.0496    2.7765    1.8273 H   0  0  0  0  0  0  0  0  0  0  0  0
    0.9063   -1.0449    0.0072 N   0  0  0  0  0  2  0  0  0  0  0  0
    1.4212   -2.3669   -0.3354 C   0  0  0  0  0  0  0  0  0  0  0  0
    0.6217   -3.0993   -0.1094 H   0  0  0  0  0  0  0  0  0  0  0  0
    2.2678   -2.6169    0.3439 H   0  0  0  0  0  0  0  0  0  0  0  0
    1.8598   -2.5227   -1.7927 C   0  0  0  0  0  0  0  0  0  0  0  0
    1.0202   -2.2768   -2.4721 H   0  0  0  0  0  0  0  0  0  0  0  0
    2.1850   -3.5649   -1.9888 H   0  0  0  0  0  0  0  0  0  0  0  0
    2.7107   -1.8520   -2.0284 H   0  0  0  0  0  0  0  0  0  0  0  0
  1 21  1  0  0  0  0
  1  2  1  0  0  0  0
  2 11  1  0  0  0  0
  3  5  1  0  0  0  0
  3  2  2  0  0  0  0
  4  3  1  0  0  0  0
  5  7  2  0  0  0  0
  6  5  1  0  0  0  0
  7  8  1  0  0  0  0
  7  9  1  0  0  0  0
  9 10  1  0  0  0  0
 11  9  2  0  0  0  0
 11 12  1  0  0  0  0
 13 14  1  0  0  0  0
 13  1  1  0  0  0  0
 14 17  1  0  0  0  0
 15 14  1  0  0  0  0
 16 14  1  0  0  0  0
 17 20  1  0  0  0  0
 18 17  1  0  0  0  0
 19 17  1  0  0  0  0
 22 23  1  0  0  0  0
 22 21  1  0  0  0  0
 22 24  1  0  0  0  0
 25 22  1  0  0  0  0
 26 25  1  0  0  0  0
 27 25  1  0  0  0  0
 28 25  1  0  0  0  0
M  END
