4,50
 OpenBabel05122313053D

 50 52  0  0  0  0  0  0  0  0999 V2000
    0.4196    0.3139   -0.4364 C   0  0  0  0  0  3  0  0  0  0  0  0
   -0.4163    3.3920   -0.3385 C   0  0  0  0  0  0  0  0  0  0  0  0
    3.8920    1.9667    0.1664 O   0  0  0  0  0  0  0  0  0  0  0  0
    0.1650   -0.9730   -0.1521 N   0  0  0  0  0  2  0  0  0  0  0  0
   -1.0790    2.2495   -0.8840 C   0  0  0  0  0  0  0  0  0  0  0  0
    1.6259    0.9075   -0.7021 N   0  0  0  0  0  0  0  0  0  0  0  0
    1.6983    1.8664   -0.3365 H   0  0  0  0  0  0  0  0  0  0  0  0
   -1.9014    4.8791   -1.5709 C   0  0  0  0  0  0  0  0  0  0  0  0
   -2.2107    5.9011   -1.8353 H   0  0  0  0  0  0  0  0  0  0  0  0
    0.6010    3.1242    0.5515 O   0  0  0  0  0  0  0  0  0  0  0  0
    4.0775   -1.5024   -2.1579 C   0  0  0  0  0  0  0  0  0  0  0  0
    4.0877   -2.4128   -2.7745 H   0  0  0  0  0  0  0  0  0  0  0  0
    0.9885   -2.0187    0.2379 C   0  0  0  0  0  0  0  0  0  0  0  0
    2.6006   -4.2069    1.0165 C   0  0  0  0  0  0  0  0  0  0  0  0
    3.2416   -5.0499    1.3152 H   0  0  0  0  0  0  0  0  0  0  0  0
    2.1498   -0.5872    1.7189 O   0  0  0  0  0  0  0  0  0  0  0  0
    2.8514   -0.8915   -1.8538 C   0  0  0  0  0  0  0  0  0  0  0  0
    1.9059   -1.2966   -2.2406 H   0  0  0  0  0  0  0  0  0  0  0  0
    0.7606   -3.3093   -0.2834 C   0  0  0  0  0  0  0  0  0  0  0  0
   -0.0451   -3.4097   -1.0265 H   0  0  0  0  0  0  0  0  0  0  0  0
   -0.8220    4.6890   -0.6906 C   0  0  0  0  0  0  0  0  0  0  0  0
   -0.3066    5.5625   -0.2686 H   0  0  0  0  0  0  0  0  0  0  0  0
    5.2577    0.2215   -0.9091 C   0  0  0  0  0  0  0  0  0  0  0  0
    6.2024    0.6520   -0.5503 H   0  0  0  0  0  0  0  0  0  0  0  0
    5.2758   -0.9534   -1.6851 C   0  0  0  0  0  0  0  0  0  0  0  0
    6.2394   -1.4278   -1.9229 H   0  0  0  0  0  0  0  0  0  0  0  0
    2.8343   -2.9349    1.5672 C   0  0  0  0  0  0  0  0  0  0  0  0
    3.6461   -2.7999    2.2947 H   0  0  0  0  0  0  0  0  0  0  0  0
    5.0628    2.6256    0.6025 C   0  0  0  0  0  0  0  0  0  0  0  0
    5.6681    1.9867    1.2854 H   0  0  0  0  0  0  0  0  0  0  0  0
    4.7324    3.5259    1.1543 H   0  0  0  0  0  0  0  0  0  0  0  0
    5.7056    2.9385   -0.2506 H   0  0  0  0  0  0  0  0  0  0  0  0
   -2.5727    3.7683   -2.1023 C   0  0  0  0  0  0  0  0  0  0  0  0
   -3.4141    3.9088   -2.7973 H   0  0  0  0  0  0  0  0  0  0  0  0
    4.0338    0.8286   -0.5912 C   0  0  0  0  0  0  0  0  0  0  0  0
    2.8127    0.2639   -1.0536 C   0  0  0  0  0  0  0  0  0  0  0  0
    2.0275   -1.8442    1.2016 C   0  0  0  0  0  0  0  0  0  0  0  0
    3.2435   -0.3061    2.5660 C   0  0  0  0  0  0  0  0  0  0  0  0
    3.2001   -0.8907    3.5128 H   0  0  0  0  0  0  0  0  0  0  0  0
    3.1825    0.7727    2.8003 H   0  0  0  0  0  0  0  0  0  0  0  0
    4.2123   -0.5119    2.0578 H   0  0  0  0  0  0  0  0  0  0  0  0
   -2.1644    2.4728   -1.7609 C   0  0  0  0  0  0  0  0  0  0  0  0
   -2.6521    1.5807   -2.1817 H   0  0  0  0  0  0  0  0  0  0  0  0
    1.5566   -4.3972    0.0995 C   0  0  0  0  0  0  0  0  0  0  0  0
    1.3700   -5.3917   -0.3325 H   0  0  0  0  0  0  0  0  0  0  0  0
    1.2503    4.2021    1.1976 C   0  0  0  0  0  0  0  0  0  0  0  0
    1.9957    3.7475    1.8765 H   0  0  0  0  0  0  0  0  0  0  0  0
    0.5344    4.8124    1.7914 H   0  0  0  0  0  0  0  0  0  0  0  0
    1.7750    4.8656    0.4743 H   0  0  0  0  0  0  0  0  0  0  0  0
   -0.7652    0.9549   -0.4989 N   0  0  0  0  0  2  0  0  0  0  0  0
  1  4  1  0  0  0  0
  2 10  1  0  0  0  0
  3 29  1  0  0  0  0
  4 13  1  0  0  0  0
  5 50  1  0  0  0  0
  5  2  2  0  0  0  0
  6  1  1  0  0  0  0
  6  7  1  0  0  0  0
  8 21  2  0  0  0  0
  9  8  1  0  0  0  0
 10 46  1  0  0  0  0
 11 17  2  0  0  0  0
 11 25  1  0  0  0  0
 12 11  1  0  0  0  0
 13 37  1  0  0  0  0
 14 15  1  0  0  0  0
 14 27  1  0  0  0  0
 16 38  1  0  0  0  0
 17 36  1  0  0  0  0
 18 17  1  0  0  0  0
 19 44  1  0  0  0  0
 19 13  2  0  0  0  0
 20 19  1  0  0  0  0
 21  2  1  0  0  0  0
 21 22  1  0  0  0  0
 23 35  1  0  0  0  0
 23 24  1  0  0  0  0
 25 23  2  0  0  0  0
 26 25  1  0  0  0  0
 27 28  1  0  0  0  0
 29 31  1  0  0  0  0
 29 30  1  0  0  0  0
 32 29  1  0  0  0  0
 33 42  2  0  0  0  0
 33  8  1  0  0  0  0
 34 33  1  0  0  0  0
 35  3  1  0  0  0  0
 36  6  1  0  0  0  0
 36 35  2  0  0  0  0
 37 27  2  0  0  0  0
 37 16  1  0  0  0  0
 38 40  1  0  0  0  0
 38 39  1  0  0  0  0
 41 38  1  0  0  0  0
 42  5  1  0  0  0  0
 43 42  1  0  0  0  0
 44 14  2  0  0  0  0
 45 44  1  0  0  0  0
 46 48  1  0  0  0  0
 46 47  1  0  0  0  0
 49 46  1  0  0  0  0
 50  1  1  0  0  0  0
M  END
