3,4
 OpenBabel05122313053D

 28 30  0  0  1  0  0  0  0  0999 V2000
    1.6660   -1.1919   -0.9464 O   0  0  0  0  0  0  0  0  0  0  0  0
    1.8289   -2.1578   -0.9749 H   0  0  0  0  0  0  0  0  0  0  0  0
   -2.4608   -0.0754   -0.0409 N   0  0  0  0  0  2  0  0  0  0  0  0
    0.0192    0.8040   -0.3706 N   0  0  0  0  0  2  0  0  0  0  0  0
   -0.5126    2.9908   -0.1698 N   0  0  0  0  0  0  0  0  0  0  0  0
    0.8253    2.8105   -0.2165 N   0  0  0  0  0  0  0  0  0  0  0  0
    1.4431    3.6224   -0.1736 H   0  0  0  0  0  0  0  0  0  0  0  0
   -3.6724   -0.6464   -0.0044 C   0  0  0  0  0  3  0  0  0  0  0  0
   -3.6766   -1.7466    0.0713 H   0  0  0  0  0  0  0  0  0  0  0  0
   -4.8514    0.1104   -0.0692 C   0  0  0  0  0  0  0  0  0  0  0  0
   -5.8297   -0.3895   -0.0316 H   0  0  0  0  0  0  0  0  0  0  0  0
   -4.7497    1.5066   -0.1803 C   0  0  0  0  0  0  0  0  0  0  0  0
   -5.6559    2.1289   -0.2278 H   0  0  0  0  0  0  0  0  0  0  0  0
   -3.4832    2.1025   -0.2418 C   0  0  0  0  0  0  0  0  0  0  0  0
   -3.3514    3.1885   -0.3455 H   0  0  0  0  0  0  0  0  0  0  0  0
   -2.3552    1.2685   -0.1769 C   0  0  0  0  0  0  0  0  0  0  0  0
   -0.9658    1.7376   -0.2522 C   0  0  0  0  0  0  0  0  0  0  0  0
    1.1677    1.4848   -0.3187 C   0  0  1  0  0  3  0  0  0  0  0  0
    2.5145    0.9288   -0.2913 C   0  0  0  0  0  0  0  0  0  0  0  0
    2.7277   -0.4582   -0.5589 C   0  0  0  0  0  0  0  0  0  0  0  0
    4.0233   -0.9966   -0.4467 C   0  0  0  0  0  0  0  0  0  0  0  0
    4.1696   -2.0698   -0.6441 H   0  0  0  0  0  0  0  0  0  0  0  0
    5.1044   -0.1820   -0.0959 C   0  0  0  0  0  0  0  0  0  0  0  0
    6.1088   -0.6235   -0.0125 H   0  0  0  0  0  0  0  0  0  0  0  0
    4.9126    1.1887    0.1517 C   0  0  0  0  0  0  0  0  0  0  0  0
    5.7602    1.8292    0.4334 H   0  0  0  0  0  0  0  0  0  0  0  0
    3.6273    1.7271    0.0580 C   0  0  0  0  0  0  0  0  0  0  0  0
    3.4791    2.7923    0.2931 H   0  0  0  0  0  0  0  0  0  0  0  0
  1 20  1  0  0  0  0
  2  1  1  0  0  0  0
  3  8  1  0  0  0  0
  4 18  1  0  0  0  0
  4 17  1  0  0  0  0
  6  7  1  0  0  0  0
  6  5  1  0  0  0  0
  8  9  1  0  0  0  0
 10 11  1  0  0  0  0
 10  8  1  0  0  0  0
 12 10  2  0  0  0  0
 13 12  1  0  0  0  0
 14 12  1  0  0  0  0
 14 16  2  0  0  0  0
 15 14  1  0  0  0  0
 16  3  1  0  0  0  0
 17 16  1  0  0  0  0
 17  5  2  0  0  0  0
 18 19  1  1  0  0  0
 18  6  1  0  0  0  0
 19 27  1  0  0  0  0
 20 21  1  0  0  0  0
 20 19  2  0  0  0  0
 21 23  2  0  0  0  0
 22 21  1  0  0  0  0
 23 24  1  0  0  0  0
 23 25  1  0  0  0  0
 25 26  1  0  0  0  0
 27 25  2  0  0  0  0
 27 28  1  0  0  0  0
M  END
