1,2
 OpenBabel05122313053D

 36 37  0  0  1  0  0  0  0  0999 V2000
    1.3127    0.3380    0.4368 N   0  0  0  0  0  2  0  0  0  0  0  0
   -1.1697    0.5406   -0.4489 N   0  0  0  0  0  2  0  0  0  0  0  0
    1.6484    2.5861    0.4522 O   0  0  0  0  0  0  0  0  0  0  0  0
   -1.2025    2.8116   -0.3411 O   0  0  0  0  0  0  0  0  0  0  0  0
    2.7477    0.4777    0.7419 C   0  0  2  0  0  0  0  0  0  0  0  0
    2.9713   -0.0826    1.6728 H   0  0  0  0  0  0  0  0  0  0  0  0
    2.8875    2.0088    0.9681 C   0  0  0  0  0  0  0  0  0  0  0  0
    2.9619    2.2844    2.0395 H   0  0  0  0  0  0  0  0  0  0  0  0
    3.7282    2.4704    0.4159 H   0  0  0  0  0  0  0  0  0  0  0  0
    0.8361    1.5411    0.2483 C   0  0  0  0  0  0  0  0  0  0  0  0
   -0.5464    1.6515   -0.2009 C   0  0  0  0  0  0  0  0  0  0  0  0
   -2.5373    2.4338   -0.8143 C   0  0  0  0  0  0  0  0  0  0  0  0
   -2.6595    2.8544   -1.8318 H   0  0  0  0  0  0  0  0  0  0  0  0
   -3.2754    2.9059   -0.1364 H   0  0  0  0  0  0  0  0  0  0  0  0
   -2.5596    0.8737   -0.7788 C   0  0  2  0  0  0  0  0  0  0  0  0
   -2.7893    0.4538   -1.7807 H   0  0  0  0  0  0  0  0  0  0  0  0
    3.6181   -0.1106   -0.3960 C   0  0  0  0  0  0  0  0  0  0  0  0
    3.3245   -1.1794   -0.4555 H   0  0  0  0  0  0  0  0  0  0  0  0
    5.1028   -0.0399   -0.0230 C   0  0  0  0  0  0  0  0  0  0  0  0
    5.7215   -0.5451   -0.7908 H   0  0  0  0  0  0  0  0  0  0  0  0
    5.3052   -0.5326    0.9502 H   0  0  0  0  0  0  0  0  0  0  0  0
    5.4641    1.0087    0.0455 H   0  0  0  0  0  0  0  0  0  0  0  0
    3.3244    0.5321   -1.7547 C   0  0  0  0  0  0  0  0  0  0  0  0
    2.2619    0.3973   -2.0398 H   0  0  0  0  0  0  0  0  0  0  0  0
    3.9418    0.0611   -2.5451 H   0  0  0  0  0  0  0  0  0  0  0  0
    3.5554    1.6188   -1.7644 H   0  0  0  0  0  0  0  0  0  0  0  0
   -3.5391    0.2295    0.2326 C   0  0  0  0  0  0  0  0  0  0  0  0
   -3.3464   -0.8619    0.1396 H   0  0  0  0  0  0  0  0  0  0  0  0
   -3.2425    0.6398    1.6770 C   0  0  0  0  0  0  0  0  0  0  0  0
   -2.2114    0.3547    1.9684 H   0  0  0  0  0  0  0  0  0  0  0  0
   -3.9362    0.1269    2.3724 H   0  0  0  0  0  0  0  0  0  0  0  0
   -3.3652    1.7326    1.8416 H   0  0  0  0  0  0  0  0  0  0  0  0
   -4.9883    0.5160   -0.1716 C   0  0  0  0  0  0  0  0  0  0  0  0
   -5.2356    1.5978   -0.1019 H   0  0  0  0  0  0  0  0  0  0  0  0
   -5.6914   -0.0200    0.4965 H   0  0  0  0  0  0  0  0  0  0  0  0
   -5.1961    0.1863   -1.2104 H   0  0  0  0  0  0  0  0  0  0  0  0
  1  5  1  0  0  0  0
  2 11  1  0  0  0  0
  3  7  1  0  0  0  0
  4 11  1  0  0  0  0
  5  7  1  0  0  0  0
  5  6  1  1  0  0  0
  7  8  1  0  0  0  0
  9  7  1  0  0  0  0
 10  1  1  0  0  0  0
 10  3  1  0  0  0  0
 11 10  2  0  0  0  0
 12 15  1  0  0  0  0
 12  4  1  0  0  0  0
 12 14  1  0  0  0  0
 13 12  1  0  0  0  0
 15 16  1  6  0  0  0
 15  2  1  0  0  0  0
 15 27  1  0  0  0  0
 17 19  1  0  0  0  0
 17  5  1  0  0  0  0
 18 17  1  0  0  0  0
 19 22  1  0  0  0  0
 19 21  1  0  0  0  0
 20 19  1  0  0  0  0
 23 17  1  0  0  0  0
 24 23  1  0  0  0  0
 25 23  1  0  0  0  0
 26 23  1  0  0  0  0
 27 29  1  0  0  0  0
 28 27  1  0  0  0  0
 29 32  1  0  0  0  0
 29 30  1  0  0  0  0
 29 31  1  0  0  0  0
 33 34  1  0  0  0  0
 33 27  1  0  0  0  0
 33 35  1  0  0  0  0
 36 33  1  0  0  0  0
M  END
