9,17
 OpenBabel05122313053D

 25 25  0  0  1  0  0  0  0  0999 V2000
    3.0268    2.4426    0.2538 C   0  0  0  0  0  0  0  0  0  0  0  0
    3.0082    3.5350    0.3778 H   0  0  0  0  0  0  0  0  0  0  0  0
    4.2194    1.7667   -0.0358 C   0  0  0  0  0  0  0  0  0  0  0  0
    5.1640    2.3211   -0.1380 H   0  0  0  0  0  0  0  0  0  0  0  0
   -3.0037    1.8445   -0.5673 C   0  0  0  0  0  0  0  0  0  0  0  0
   -3.0238    0.7512   -0.7444 H   0  0  0  0  0  0  0  0  0  0  0  0
   -2.7295    2.3027   -1.5428 H   0  0  0  0  0  0  0  0  0  0  0  0
    1.8381    1.7112    0.3819 C   0  0  1  0  0  3  0  0  0  0  0  0
    1.8126    0.3630    0.2213 N   0  0  0  0  0  2  0  0  0  0  0  0
    0.5171    2.3513    0.7215 C   0  0  0  0  0  0  0  0  0  0  0  0
    0.5260    3.4296    0.4463 H   0  0  0  0  0  0  0  0  0  0  0  0
    0.3592    2.2966    1.8220 H   0  0  0  0  0  0  0  0  0  0  0  0
    2.9587   -0.2880   -0.0793 C   0  0  0  0  0  0  0  0  0  0  0  0
    2.8743   -1.3745   -0.2225 H   0  0  0  0  0  0  0  0  0  0  0  0
    4.1818    0.3757   -0.2068 C   0  0  0  0  0  0  0  0  0  0  0  0
    5.0874   -0.1981   -0.4476 H   0  0  0  0  0  0  0  0  0  0  0  0
   -0.5959    1.6292    0.0763 N   0  0  0  0  0  0  0  0  0  0  0  0
   -1.9215    2.1761    0.4563 C   0  0  0  0  0  0  0  0  0  0  0  0
   -1.8449    3.2840    0.5633 H   0  0  0  0  0  0  0  0  0  0  0  0
   -2.1820    1.7704    1.4567 H   0  0  0  0  0  0  0  0  0  0  0  0
   -4.3829    2.3293   -0.1223 C   0  0  0  0  0  0  0  0  0  0  0  0
   -5.1496    2.1023   -0.8884 H   0  0  0  0  0  0  0  0  0  0  0  0
   -4.3986    3.4254    0.0532 H   0  0  0  0  0  0  0  0  0  0  0  0
   -4.6974    1.8339    0.8194 H   0  0  0  0  0  0  0  0  0  0  0  0
   -0.4875    1.6881   -0.9581 H   0  0  0  0  0  0  0  0  0  0  0  0
  1  2  1  0  0  0  0
  1  8  1  0  0  0  0
  3  1  2  0  0  0  0
  4  3  1  0  0  0  0
  5 21  1  0  0  0  0
  5 18  1  0  0  0  0
  6  5  1  0  0  0  0
  7  5  1  0  0  0  0
  8 10  1  1  0  0  0
  9  8  1  0  0  0  0
 10 12  1  0  0  0  0
 11 10  1  0  0  0  0
 13  9  1  0  0  0  0
 14 13  1  0  0  0  0
 15 13  2  0  0  0  0
 15  3  1  0  0  0  0
 16 15  1  0  0  0  0
 17 18  1  0  0  0  0
 17 10  1  0  0  0  0
 18 19  1  0  0  0  0
 18 20  1  0  0  0  0
 21 23  1  0  0  0  0
 21 24  1  0  0  0  0
 22 21  1  0  0  0  0
 25 17  1  0  0  0  0
M  END
