1,3
 OpenBabel05122313053D

 26 26  0  0  0  0  0  0  0  0999 V2000
    1.4758    0.3628    0.4521 N   0  0  0  0  0  0  0  0  0  0  0  0
    0.9901    0.0742    1.3151 H   0  0  0  0  0  0  0  0  0  0  0  0
   -0.7525    1.3650   -0.8666 N   0  0  0  0  0  0  0  0  0  0  0  0
   -0.0725    2.1865    0.0109 C   0  0  0  0  0  3  0  0  0  0  0  0
    1.3506    1.8398    0.3324 C   0  0  0  0  0  0  0  0  0  0  0  0
    2.0346    2.1578   -0.4862 H   0  0  0  0  0  0  0  0  0  0  0  0
    1.6844    2.3707    1.2505 H   0  0  0  0  0  0  0  0  0  0  0  0
   -2.0033    1.9077   -1.0459 C   0  0  0  0  0  0  0  0  0  0  0  0
   -2.7372    1.4253   -1.7054 H   0  0  0  0  0  0  0  0  0  0  0  0
   -2.1287    3.0794   -0.2902 C   0  0  0  0  0  0  0  0  0  0  0  0
   -3.0077    3.7342   -0.2419 H   0  0  0  0  0  0  0  0  0  0  0  0
   -0.8878    3.2579    0.3942 C   0  0  0  0  0  0  0  0  0  0  0  0
   -0.6133    4.0801    1.0674 H   0  0  0  0  0  0  0  0  0  0  0  0
    2.8492   -0.2294    0.4783 C   0  0  0  0  0  0  0  0  0  0  0  0
    3.4591   -0.1428   -0.9291 C   0  0  0  0  0  0  0  0  0  0  0  0
    2.8071   -0.6548   -1.6651 H   0  0  0  0  0  0  0  0  0  0  0  0
    4.4540   -0.6299   -0.9465 H   0  0  0  0  0  0  0  0  0  0  0  0
    3.5963    0.9072   -1.2557 H   0  0  0  0  0  0  0  0  0  0  0  0
    2.6719   -1.7032    0.8744 C   0  0  0  0  0  0  0  0  0  0  0  0
    2.2230   -1.7932    1.8858 H   0  0  0  0  0  0  0  0  0  0  0  0
    3.6493   -2.2239    0.8878 H   0  0  0  0  0  0  0  0  0  0  0  0
    2.0075   -2.2207    0.1547 H   0  0  0  0  0  0  0  0  0  0  0  0
    3.7502    0.4824    1.5034 C   0  0  0  0  0  0  0  0  0  0  0  0
    3.9364    1.5385    1.2253 H   0  0  0  0  0  0  0  0  0  0  0  0
    4.7342   -0.0229    1.5711 H   0  0  0  0  0  0  0  0  0  0  0  0
    3.2919    0.4666    2.5142 H   0  0  0  0  0  0  0  0  0  0  0  0
  1 14  1  0  0  0  0
  1  2  1  0  0  0  0
  3  4  1  0  0  0  0
  4  5  1  0  0  0  0
  4 12  1  0  0  0  0
  5  1  1  0  0  0  0
  5  7  1  0  0  0  0
  6  5  1  0  0  0  0
  8  3  2  0  0  0  0
  8 10  1  0  0  0  0
  9  8  1  0  0  0  0
 10 11  1  0  0  0  0
 10 12  2  0  0  0  0
 12 13  1  0  0  0  0
 14 19  1  0  0  0  0
 14 23  1  0  0  0  0
 15 14  1  0  0  0  0
 16 15  1  0  0  0  0
 17 15  1  0  0  0  0
 18 15  1  0  0  0  0
 19 21  1  0  0  0  0
 19 20  1  0  0  0  0
 22 19  1  0  0  0  0
 23 25  1  0  0  0  0
 23 26  1  0  0  0  0
 24 23  1  0  0  0  0
M  END
