1,3
 OpenBabel05122313053D

 37 37  0  0  0  0  0  0  0  0999 V2000
    1.8320    0.9686   -0.7377 N   0  0  0  0  0  0  0  0  0  0  0  0
    2.2968    0.2543   -0.1068 H   0  0  0  0  0  0  0  0  0  0  0  0
   -0.2093   -0.5480   -1.8960 N   0  0  0  0  0  0  0  0  0  0  0  0
   -2.6383   -1.7702   -0.4982 N   0  0  0  0  0  0  0  0  0  0  0  0
   -0.0874   -2.4426   -3.1350 C   0  0  0  0  0  0  0  0  0  0  0  0
   -0.3735   -3.3803   -3.6286 H   0  0  0  0  0  0  0  0  0  0  0  0
    1.1787   -1.7843   -3.2086 C   0  0  0  0  0  0  0  0  0  0  0  0
    2.0613   -2.1047   -3.7769 H   0  0  0  0  0  0  0  0  0  0  0  0
    2.0111    0.5020   -2.1401 C   0  0  0  0  0  0  0  0  0  0  0  0
    1.8021    1.3617   -2.8131 H   0  0  0  0  0  0  0  0  0  0  0  0
    3.0583    0.1874   -2.3410 H   0  0  0  0  0  0  0  0  0  0  0  0
    2.3715    2.3137   -0.3775 C   0  0  0  0  0  0  0  0  0  0  0  0
    2.0278    2.5366    1.1045 C   0  0  0  0  0  0  0  0  0  0  0  0
    2.4333    1.7232    1.7365 H   0  0  0  0  0  0  0  0  0  0  0  0
    0.9293    2.5552    1.2584 H   0  0  0  0  0  0  0  0  0  0  0  0
    2.4425    3.4998    1.4616 H   0  0  0  0  0  0  0  0  0  0  0  0
    1.0605   -0.6277   -2.4291 C   0  0  0  0  0  0  0  0  0  0  0  0
   -0.9106   -1.6587   -2.3141 C   0  0  0  0  0  3  0  0  0  0  0  0
   -2.3491   -1.8652   -1.9452 C   0  0  0  0  0  0  0  0  0  0  0  0
   -2.9911   -1.1022   -2.4440 H   0  0  0  0  0  0  0  0  0  0  0  0
   -2.6775   -2.8575   -2.3486 H   0  0  0  0  0  0  0  0  0  0  0  0
    1.7013    3.4026   -1.2294 C   0  0  0  0  0  0  0  0  0  0  0  0
    0.5977    3.2991   -1.1985 H   0  0  0  0  0  0  0  0  0  0  0  0
    2.0167    3.3640   -2.2902 H   0  0  0  0  0  0  0  0  0  0  0  0
    1.9641    4.4061   -0.8407 H   0  0  0  0  0  0  0  0  0  0  0  0
    3.8992    2.3590   -0.5719 C   0  0  0  0  0  0  0  0  0  0  0  0
    4.3981    1.5846    0.0454 H   0  0  0  0  0  0  0  0  0  0  0  0
    4.3052    3.3459   -0.2724 H   0  0  0  0  0  0  0  0  0  0  0  0
    4.1789    2.1896   -1.6308 H   0  0  0  0  0  0  0  0  0  0  0  0
   -1.9010   -2.7714    0.2725 C   0  0  0  0  0  0  0  0  0  0  0  0
   -0.8286   -2.7188    0.0121 H   0  0  0  0  0  0  0  0  0  0  0  0
   -2.2608   -3.8095    0.0566 H   0  0  0  0  0  0  0  0  0  0  0  0
   -1.9978   -2.5701    1.3583 H   0  0  0  0  0  0  0  0  0  0  0  0
   -4.0689   -1.8706   -0.2457 C   0  0  0  0  0  0  0  0  0  0  0  0
   -4.6150   -1.0825   -0.8054 H   0  0  0  0  0  0  0  0  0  0  0  0
   -4.2735   -1.7396    0.8368 H   0  0  0  0  0  0  0  0  0  0  0  0
   -4.4955   -2.8603   -0.5549 H   0  0  0  0  0  0  0  0  0  0  0  0
  1 12  1  0  0  0  0
  1  2  1  0  0  0  0
  4 34  1  0  0  0  0
  4 30  1  0  0  0  0
  5 18  1  0  0  0  0
  6  5  1  0  0  0  0
  7  5  2  0  0  0  0
  7 17  1  0  0  0  0
  8  7  1  0  0  0  0
  9  1  1  0  0  0  0
 10  9  1  0  0  0  0
 11  9  1  0  0  0  0
 12 13  1  0  0  0  0
 13 15  1  0  0  0  0
 13 16  1  0  0  0  0
 13 14  1  0  0  0  0
 17  9  1  0  0  0  0
 17  3  2  0  0  0  0
 18 19  1  0  0  0  0
 18  3  1  0  0  0  0
 19  4  1  0  0  0  0
 20 19  1  0  0  0  0
 21 19  1  0  0  0  0
 22 23  1  0  0  0  0
 22 25  1  0  0  0  0
 22 12  1  0  0  0  0
 24 22  1  0  0  0  0
 26 12  1  0  0  0  0
 26 28  1  0  0  0  0
 26 27  1  0  0  0  0
 29 26  1  0  0  0  0
 30 33  1  0  0  0  0
 31 30  1  0  0  0  0
 32 30  1  0  0  0  0
 34 36  1  0  0  0  0
 35 34  1  0  0  0  0
 37 34  1  0  0  0  0
M  END
