2,4
 OpenBabel05122313053D

 49 50  0  0  1  0  0  0  0  0999 V2000
    2.7452   -0.3472   -0.3158 N   0  0  0  0  0  0  0  0  0  0  0  0
    1.6314   -1.1260   -0.1152 N   0  0  0  0  0  2  0  0  0  0  0  0
    1.8099    1.7242   -1.5943 N   0  0  0  0  0  0  0  0  0  0  0  0
    0.4777    1.4783   -1.4805 N   0  0  0  0  0  2  0  0  0  0  0  0
    3.7148   -0.7119    0.5748 C   0  0  2  0  0  3  0  0  0  0  0  0
    3.2005   -1.7699    1.3441 C   0  0  0  0  0  0  0  0  0  0  0  0
    1.8944   -2.0083    0.8793 C   0  0  0  0  0  0  0  0  0  0  0  0
    2.0038    3.0396   -1.8867 C   0  0  2  0  0  3  0  0  0  0  0  0
    0.7394    3.6504   -1.9514 C   0  0  0  0  0  0  0  0  0  0  0  0
   -0.1979    2.6298   -1.6920 C   0  0  0  0  0  0  0  0  0  0  0  0
    3.3483    3.6439   -2.1319 C   0  0  0  0  0  0  0  0  0  0  0  0
   -1.6916    2.6907   -1.6370 C   0  0  0  0  0  0  0  0  0  0  0  0
    5.0948   -0.0775    0.7064 C   0  0  0  0  0  0  0  0  0  0  0  0
    4.9664    1.4540    0.8562 C   0  0  0  0  0  0  0  0  0  0  0  0
    5.7778   -0.6230    1.9777 C   0  0  0  0  0  0  0  0  0  0  0  0
    5.9842   -0.4421   -0.5050 C   0  0  0  0  0  0  0  0  0  0  0  0
    0.9501   -3.1341    1.2816 C   0  0  0  0  0  0  0  0  0  0  0  0
    1.5363   -3.8822    2.4931 C   0  0  0  0  0  0  0  0  0  0  0  0
   -0.4508   -2.6130    1.6551 C   0  0  0  0  0  0  0  0  0  0  0  0
    0.8291   -4.1098    0.0874 C   0  0  0  0  0  0  0  0  0  0  0  0
    2.8025    0.5178   -1.6356 B   0  0  0  0  0  0  0  0  0  0  0  0
    3.7210   -2.3085    2.1375 H   0  0  0  0  0  0  0  0  0  0  0  0
    0.5314    4.7005   -2.1817 H   0  0  0  0  0  0  0  0  0  0  0  0
    3.8476    3.1847   -3.0086 H   0  0  0  0  0  0  0  0  0  0  0  0
    4.0269    3.5087   -1.2661 H   0  0  0  0  0  0  0  0  0  0  0  0
    3.2435    4.7285   -2.3202 H   0  0  0  0  0  0  0  0  0  0  0  0
   -2.1373    1.7455   -2.0060 H   0  0  0  0  0  0  0  0  0  0  0  0
   -2.0678    3.5215   -2.2634 H   0  0  0  0  0  0  0  0  0  0  0  0
   -2.0608    2.8554   -0.6020 H   0  0  0  0  0  0  0  0  0  0  0  0
    5.9697    1.9118    0.9747 H   0  0  0  0  0  0  0  0  0  0  0  0
    4.3608    1.7113    1.7488 H   0  0  0  0  0  0  0  0  0  0  0  0
    4.4813    1.9026   -0.0286 H   0  0  0  0  0  0  0  0  0  0  0  0
    6.7666   -0.1384    2.1038 H   0  0  0  0  0  0  0  0  0  0  0  0
    5.9478   -1.7163    1.9162 H   0  0  0  0  0  0  0  0  0  0  0  0
    5.1772   -0.4145    2.8858 H   0  0  0  0  0  0  0  0  0  0  0  0
    6.9969   -0.0073   -0.3751 H   0  0  0  0  0  0  0  0  0  0  0  0
    5.5598   -0.0634   -1.4523 H   0  0  0  0  0  0  0  0  0  0  0  0
    6.0903   -1.5422   -0.5910 H   0  0  0  0  0  0  0  0  0  0  0  0
    2.5243   -4.3266    2.2601 H   0  0  0  0  0  0  0  0  0  0  0  0
    0.8589   -4.7083    2.7882 H   0  0  0  0  0  0  0  0  0  0  0  0
    1.6563   -3.2104    3.3673 H   0  0  0  0  0  0  0  0  0  0  0  0
   -1.0806   -3.4528    2.0137 H   0  0  0  0  0  0  0  0  0  0  0  0
   -0.9691   -2.1767    0.7805 H   0  0  0  0  0  0  0  0  0  0  0  0
   -0.4074   -1.8452    2.4532 H   0  0  0  0  0  0  0  0  0  0  0  0
    1.8223   -4.5142   -0.1931 H   0  0  0  0  0  0  0  0  0  0  0  0
    0.3993   -3.6021   -0.7984 H   0  0  0  0  0  0  0  0  0  0  0  0
    0.1676   -4.9607    0.3518 H   0  0  0  0  0  0  0  0  0  0  0  0
    2.4501   -0.2227   -2.5525 H   0  0  0  0  0  0  0  0  0  0  0  0
    3.9216    0.9577   -1.8075 H   0  0  0  0  0  0  0  0  0  0  0  0
  1  2  1  0  0  0  0
  1  5  1  0  0  0  0
  2  7  1  0  0  0  0
  3  4  1  0  0  0  0
  5 13  1  1  0  0  0
  5  6  1  0  0  0  0
  6 22  1  0  0  0  0
  7 17  1  0  0  0  0
  7  6  2  0  0  0  0
  8 11  1  6  0  0  0
  8  3  1  0  0  0  0
  9  8  1  0  0  0  0
  9 10  2  0  0  0  0
 10 12  1  0  0  0  0
 10  4  1  0  0  0  0
 11 25  1  0  0  0  0
 12 29  1  0  0  0  0
 13 14  1  0  0  0  0
 13 15  1  0  0  0  0
 14 30  1  0  0  0  0
 14 31  1  0  0  0  0
 15 33  1  0  0  0  0
 15 35  1  0  0  0  0
 16 36  1  0  0  0  0
 16 13  1  0  0  0  0
 17 19  1  0  0  0  0
 17 18  1  0  0  0  0
 18 40  1  0  0  0  0
 18 41  1  0  0  0  0
 19 42  1  0  0  0  0
 19 44  1  0  0  0  0
 20 47  1  0  0  0  0
 20 17  1  0  0  0  0
 21  3  1  0  0  0  0
 21  1  1  0  0  0  0
 23  9  1  0  0  0  0
 24 11  1  0  0  0  0
 26 11  1  0  0  0  0
 27 12  1  0  0  0  0
 28 12  1  0  0  0  0
 32 14  1  0  0  0  0
 34 15  1  0  0  0  0
 37 16  1  0  0  0  0
 38 16  1  0  0  0  0
 39 18  1  0  0  0  0
 43 19  1  0  0  0  0
 45 20  1  0  0  0  0
 46 20  1  0  0  0  0
 48 21  1  0  0  0  0
 49 21  1  0  0  0  0
M  END
