5,6
 OpenBabel05122313053D

 39 43  0  0  0  0  0  0  0  0999 V2000
   -6.3776   -2.6739   -0.2154 Cl  0  0  0  0  0  0  0  0  0  0  0  0
   -3.9923    1.7126   -0.0941 N   0  0  0  0  0  0  0  0  0  0  0  0
   -3.3008    2.4594   -0.1277 H   0  0  0  0  0  0  0  0  0  0  0  0
   -3.7961   -2.4166   -0.5615 N   0  0  0  0  0  0  0  0  0  0  0  0
    1.1819    0.1463   -0.9317 N   0  0  0  0  0  2  0  0  0  0  0  0
    3.5809    1.0836   -0.8564 N   0  0  0  0  0  2  0  0  0  0  0  0
   -0.0960   -0.4613   -0.8534 C   0  0  0  0  0  0  0  0  0  0  0  0
   -1.2399    0.3157   -0.6360 C   0  0  0  0  0  0  0  0  0  0  0  0
   -1.1327    1.4038   -0.5061 H   0  0  0  0  0  0  0  0  0  0  0  0
   -2.5089   -0.3029   -0.5261 C   0  0  0  0  0  0  0  0  0  0  0  0
   -3.7386    0.3752   -0.2722 C   0  0  0  0  0  0  0  0  0  0  0  0
   -5.3546    1.9120    0.1246 C   0  0  0  0  0  0  0  0  0  0  0  0
   -6.0540    3.1067    0.3501 C   0  0  0  0  0  0  0  0  0  0  0  0
   -5.5403    4.0789    0.3757 H   0  0  0  0  0  0  0  0  0  0  0  0
   -7.4379    3.0122    0.5408 C   0  0  0  0  0  0  0  0  0  0  0  0
   -8.0191    3.9289    0.7196 H   0  0  0  0  0  0  0  0  0  0  0  0
   -8.1022    1.7639    0.5072 C   0  0  0  0  0  0  0  0  0  0  0  0
   -9.1906    1.7303    0.6610 H   0  0  0  0  0  0  0  0  0  0  0  0
   -7.4025    0.5744    0.2818 C   0  0  0  0  0  0  0  0  0  0  0  0
   -7.9202   -0.3934    0.2550 H   0  0  0  0  0  0  0  0  0  0  0  0
   -6.0067    0.6380    0.0863 C   0  0  0  0  0  0  0  0  0  0  0  0
   -4.9664   -0.3367   -0.1683 C   0  0  0  0  0  0  0  0  0  0  0  0
   -4.9022   -1.7494   -0.3297 C   0  0  0  0  0  0  0  0  0  0  0  0
   -2.6175   -1.7416   -0.6611 C   0  0  0  0  0  0  0  0  0  0  0  0
   -1.4281   -2.4901   -0.9057 C   0  0  0  0  0  0  0  0  0  0  0  0
   -1.5385   -3.5762   -1.0340 H   0  0  0  0  0  0  0  0  0  0  0  0
   -0.1900   -1.8762   -0.9883 C   0  0  0  0  0  0  0  0  0  0  0  0
    0.7272   -2.4411   -1.2099 H   0  0  0  0  0  0  0  0  0  0  0  0
    1.3886    1.1841   -1.7086 C   0  0  0  0  0  0  0  0  0  0  0  0
    0.5944    1.5780   -2.3638 H   0  0  0  0  0  0  0  0  0  0  0  0
    2.7198    1.7318   -1.7077 C   0  0  0  0  0  0  0  0  0  0  0  0
    3.1530    2.7946   -2.5235 C   0  0  0  0  0  0  0  0  0  0  0  0
    2.4341    3.2862   -3.1943 H   0  0  0  0  0  0  0  0  0  0  0  0
    4.4930    3.1864   -2.4772 C   0  0  0  0  0  0  0  0  0  0  0  0
    4.8563    4.0130   -3.1046 H   0  0  0  0  0  0  0  0  0  0  0  0
    5.3722    2.4895   -1.6302 C   0  0  0  0  0  0  0  0  0  0  0  0
    6.4390    2.7476   -1.5767 H   0  0  0  0  0  0  0  0  0  0  0  0
    4.8826    1.4397   -0.8463 C   0  0  0  0  0  0  0  0  0  0  0  0
    5.5452    0.8519   -0.1970 H   0  0  0  0  0  0  0  0  0  0  0  0
  2 12  1  0  0  0  0
  3  2  1  0  0  0  0
  4 23  1  0  0  0  0
  5  7  1  0  0  0  0
  6 38  1  0  0  0  0
  7  8  2  0  0  0  0
  8 10  1  0  0  0  0
  8  9  1  0  0  0  0
 10 11  2  0  0  0  0
 11 22  1  0  0  0  0
 11  2  1  0  0  0  0
 12 13  1  0  0  0  0
 13 14  1  0  0  0  0
 13 15  2  0  0  0  0
 15 16  1  0  0  0  0
 17 15  1  0  0  0  0
 17 18  1  0  0  0  0
 19 17  2  0  0  0  0
 20 19  1  0  0  0  0
 21 12  2  0  0  0  0
 21 19  1  0  0  0  0
 22 21  1  0  0  0  0
 23  1  1  0  0  0  0
 23 22  2  0  0  0  0
 24  4  2  0  0  0  0
 24 10  1  0  0  0  0
 25 24  1  0  0  0  0
 26 25  1  0  0  0  0
 27 25  2  0  0  0  0
 27  7  1  0  0  0  0
 28 27  1  0  0  0  0
 29 31  2  0  0  0  0
 29  5  1  0  0  0  0
 30 29  1  0  0  0  0
 31  6  1  0  0  0  0
 32 34  2  0  0  0  0
 32 31  1  0  0  0  0
 33 32  1  0  0  0  0
 34 36  1  0  0  0  0
 35 34  1  0  0  0  0
 36 37  1  0  0  0  0
 36 38  2  0  0  0  0
 38 39  1  0  0  0  0
M  END
