5,19
 OpenBabel05122313053D

 36 35  0  0  0  0  0  0  0  0999 V2000
   -0.7552   -2.9873    0.5018 O   0  0  0  0  0  0  0  0  0  0  0  0
   -2.7436   -3.3024   -0.5084 O   0  0  0  0  0  0  0  0  0  0  0  0
   -3.4940    0.6348    2.6160 O   0  0  0  0  0  0  0  0  0  0  0  0
   -3.6829    2.6674    1.6476 O   0  0  0  0  0  0  0  0  0  0  0  0
   -1.4340   -0.1123    0.6913 N   0  0  0  0  0  0  0  0  0  0  0  0
   -0.6570   -0.3777    1.9543 C   0  0  0  0  0  0  0  0  0  0  0  0
   -2.4352   -1.1837    0.4317 C   0  0  0  0  0  0  0  0  0  0  0  0
   -1.8421   -2.5550    0.1529 C   0  0  0  0  0  0  0  0  0  0  0  0
   -2.0983    1.2192    0.6858 C   0  0  0  0  0  0  0  0  0  0  0  0
   -3.1516    1.4328    1.7584 C   0  0  0  0  0  0  0  0  0  0  0  0
   -0.4841   -1.4672    1.9878 H   0  0  0  0  0  0  0  0  0  0  0  0
   -1.2689   -0.0989    2.8354 H   0  0  0  0  0  0  0  0  0  0  0  0
   -3.0013   -0.8889   -0.4730 H   0  0  0  0  0  0  0  0  0  0  0  0
   -3.1352   -1.2653    1.2919 H   0  0  0  0  0  0  0  0  0  0  0  0
   -2.3237   -4.1807   -0.6412 H   0  0  0  0  0  0  0  0  0  0  0  0
   -1.3200    2.0071    0.7617 H   0  0  0  0  0  0  0  0  0  0  0  0
   -2.5506    1.3550   -0.3201 H   0  0  0  0  0  0  0  0  0  0  0  0
   -4.3519    2.7411    2.3637 H   0  0  0  0  0  0  0  0  0  0  0  0
    1.4340    0.1116    0.6915 N   0  0  0  0  0  0  0  0  0  0  0  0
    0.6569    0.3761    1.9546 C   0  0  0  0  0  0  0  0  0  0  0  0
    2.4353    1.1831    0.4328 C   0  0  0  0  0  0  0  0  0  0  0  0
    2.0980   -1.2199    0.6849 C   0  0  0  0  0  0  0  0  0  0  0  0
    0.4840    1.4656    1.9889 H   0  0  0  0  0  0  0  0  0  0  0  0
    1.2687    0.0966    2.8355 H   0  0  0  0  0  0  0  0  0  0  0  0
    1.8425    2.5548    0.1550 C   0  0  0  0  0  0  0  0  0  0  0  0
    3.0014    0.8890   -0.4721 H   0  0  0  0  0  0  0  0  0  0  0  0
    3.1352    1.2639    1.2932 H   0  0  0  0  0  0  0  0  0  0  0  0
    3.1512   -1.4346    1.7575 C   0  0  0  0  0  0  0  0  0  0  0  0
    1.3196   -2.0077    0.7600 H   0  0  0  0  0  0  0  0  0  0  0  0
    2.5504   -1.3550   -0.3211 H   0  0  0  0  0  0  0  0  0  0  0  0
    0.7556    2.9869    0.5043 O   0  0  0  0  0  0  0  0  0  0  0  0
    2.7442    3.3025   -0.5055 O   0  0  0  0  0  0  0  0  0  0  0  0
    3.4936   -0.6372    2.6156 O   0  0  0  0  0  0  0  0  0  0  0  0
    3.6823   -2.6691    1.6457 O   0  0  0  0  0  0  0  0  0  0  0  0
    2.3244    4.1810   -0.6375 H   0  0  0  0  0  0  0  0  0  0  0  0
    4.3513   -2.7434    2.3617 H   0  0  0  0  0  0  0  0  0  0  0  0
  2  8  1  0  0  0  0
  4 10  1  0  0  0  0
  4 18  1  0  0  0  0
  5  6  1  0  0  0  0
  6 20  1  0  0  0  0
  6 11  1  0  0  0  0
  6 12  1  0  0  0  0
  7  5  1  0  0  0  0
  7 14  1  0  0  0  0
  8  7  1  0  0  0  0
  8  1  2  0  0  0  0
  9  5  1  0  0  0  0
  9 16  1  0  0  0  0
  9 10  1  0  0  0  0
 10  3  2  0  0  0  0
 13  7  1  0  0  0  0
 15  2  1  0  0  0  0
 17  9  1  0  0  0  0
 19 20  1  0  0  0  0
 20 23  1  0  0  0  0
 20 24  1  0  0  0  0
 21 19  1  0  0  0  0
 21 27  1  0  0  0  0
 22 19  1  0  0  0  0
 22 29  1  0  0  0  0
 22 28  1  0  0  0  0
 25 21  1  0  0  0  0
 25 31  2  0  0  0  0
 26 21  1  0  0  0  0
 28 33  2  0  0  0  0
 30 22  1  0  0  0  0
 32 25  1  0  0  0  0
 34 28  1  0  0  0  0
 34 36  1  0  0  0  0
 35 32  1  0  0  0  0
M  END
