5,8
 OpenBabel05122313053D

 40 42  0  0  1  0  0  0  0  0999 V2000
   -0.4075    3.2746    1.1035 O   0  0  0  0  0  0  0  0  0  0  0  0
    2.3330   -0.1392   -0.1717 O   0  0  0  0  0  0  0  0  0  0  0  0
    1.0264    3.2334   -0.7629 O   0  0  0  0  0  0  0  0  0  0  0  0
    4.1286    1.3736   -0.2719 O   0  0  0  0  0  0  0  0  0  0  0  0
   -2.2346    1.5148   -0.0047 N   0  0  0  0  0  0  0  0  0  0  0  0
   -2.9449    2.0496   -0.5194 H   0  0  0  0  0  0  0  0  0  0  0  0
   -2.2205    1.8894    0.9551 H   0  0  0  0  0  0  0  0  0  0  0  0
   -0.5381   -0.7225   -0.4622 N   0  0  0  0  0  0  0  0  0  0  0  0
   -0.0357   -1.4645    0.0417 H   0  0  0  0  0  0  0  0  0  0  0  0
   -0.3937   -0.9123   -1.4638 H   0  0  0  0  0  0  0  0  0  0  0  0
   -0.3025    3.1016   -0.2857 C   0  0  1  0  0  0  0  0  0  0  0  0
   -0.8675    3.8983   -0.8262 H   0  0  0  0  0  0  0  0  0  0  0  0
   -0.9002    1.7080   -0.5931 C   0  0  1  0  0  0  0  0  0  0  0  0
   -0.9950    1.6204   -1.6966 H   0  0  0  0  0  0  0  0  0  0  0  0
    0.0301    0.5862   -0.1009 C   0  0  2  0  0  0  0  0  0  0  0  0
    0.0700    0.6283    1.0087 H   0  0  0  0  0  0  0  0  0  0  0  0
    1.4274    0.8412   -0.6460 C   0  0  1  0  0  0  0  0  0  0  0  0
    1.3907    0.8172   -1.7685 H   0  0  0  0  0  0  0  0  0  0  0  0
    1.9005    2.2402   -0.2310 C   0  0  1  0  0  0  0  0  0  0  0  0
    1.9176    2.2817    0.8811 H   0  0  0  0  0  0  0  0  0  0  0  0
    3.3216    2.4423   -0.7505 C   0  0  0  0  0  0  0  0  0  0  0  0
    3.3078    2.4739   -1.8677 H   0  0  0  0  0  0  0  0  0  0  0  0
    3.7650    3.3856   -0.3777 H   0  0  0  0  0  0  0  0  0  0  0  0
    3.6448    0.1126   -0.6763 C   0  0  1  0  0  0  0  0  0  0  0  0
    3.5741    0.1063   -1.8003 H   0  0  0  0  0  0  0  0  0  0  0  0
   -0.1201    4.5935    1.5534 C   0  0  0  0  0  0  0  0  0  0  0  0
    0.9138    4.8975    1.2839 H   0  0  0  0  0  0  0  0  0  0  0  0
   -0.2286    4.5930    2.6535 H   0  0  0  0  0  0  0  0  0  0  0  0
   -0.8313    5.3310    1.1154 H   0  0  0  0  0  0  0  0  0  0  0  0
    4.5737   -0.9759   -0.1932 C   0  0  0  0  0  0  0  0  0  0  0  0
    4.1100   -2.3017   -0.1064 C   0  0  0  0  0  0  0  0  0  0  0  0
    3.0629   -2.5252   -0.3565 H   0  0  0  0  0  0  0  0  0  0  0  0
    4.9745   -3.3246    0.3078 C   0  0  0  0  0  0  0  0  0  0  0  0
    4.6036   -4.3584    0.3771 H   0  0  0  0  0  0  0  0  0  0  0  0
    6.3074   -3.0303    0.6372 C   0  0  0  0  0  0  0  0  0  0  0  0
    6.9855   -3.8337    0.9627 H   0  0  0  0  0  0  0  0  0  0  0  0
    6.7707   -1.7083    0.5522 C   0  0  0  0  0  0  0  0  0  0  0  0
    7.8131   -1.4714    0.8139 H   0  0  0  0  0  0  0  0  0  0  0  0
    5.9081   -0.6822    0.1380 C   0  0  0  0  0  0  0  0  0  0  0  0
    6.2583    0.3573    0.0757 H   0  0  0  0  0  0  0  0  0  0  0  0
  1 26  1  0  0  0  0
  3 11  1  0  0  0  0
  3 19  1  0  0  0  0
  5  7  1  0  0  0  0
  6  5  1  0  0  0  0
  8 15  1  0  0  0  0
  8  9  1  0  0  0  0
 10  8  1  0  0  0  0
 11 12  1  6  0  0  0
 11  1  1  0  0  0  0
 13 14  1  6  0  0  0
 13 11  1  0  0  0  0
 13 15  1  0  0  0  0
 13  5  1  0  0  0  0
 15 16  1  1  0  0  0
 17 18  1  6  0  0  0
 17 19  1  0  0  0  0
 17  2  1  0  0  0  0
 17 15  1  0  0  0  0
 19 20  1  1  0  0  0
 21 23  1  0  0  0  0
 21  4  1  0  0  0  0
 21 19  1  0  0  0  0
 22 21  1  0  0  0  0
 24 25  1  6  0  0  0
 24  4  1  0  0  0  0
 24 30  1  0  0  0  0
 24  2  1  0  0  0  0
 26 28  1  0  0  0  0
 27 26  1  0  0  0  0
 29 26  1  0  0  0  0
 30 31  2  0  0  0  0
 30 39  1  0  0  0  0
 31 33  1  0  0  0  0
 32 31  1  0  0  0  0
 33 34  1  0  0  0  0
 33 35  2  0  0  0  0
 35 36  1  0  0  0  0
 37 35  1  0  0  0  0
 37 38  1  0  0  0  0
 39 37  2  0  0  0  0
 40 39  1  0  0  0  0
M  END
