2,3
 OpenBabel05122313053D

 36 36  0  0  0  0  0  0  0  0999 V2000
   -0.4290    2.9175   -0.6317 Si  0  0  0  0  0  0  0  0  0  0  0  0
    0.3530    1.5145    0.0769 N   0  0  0  0  0  2  0  0  0  0  0  0
   -1.6844    1.9111   -1.5083 N   0  0  0  0  0  0  0  0  0  0  0  0
    1.6460    1.6804    0.6525 C   0  0  0  0  0  0  0  0  0  0  0  0
    2.8142    1.6285   -0.1629 C   0  0  0  0  0  0  0  0  0  0  0  0
    4.0744    1.8475    0.4294 C   0  0  0  0  0  0  0  0  0  0  0  0
    4.9709    1.7925   -0.2086 H   0  0  0  0  0  0  0  0  0  0  0  0
    4.2042    2.1228    1.7942 C   0  0  0  0  0  0  0  0  0  0  0  0
    5.1970    2.2971    2.2360 H   0  0  0  0  0  0  0  0  0  0  0  0
    3.0543    2.1656    2.5951 C   0  0  0  0  0  0  0  0  0  0  0  0
    3.1411    2.3718    3.6738 H   0  0  0  0  0  0  0  0  0  0  0  0
    1.7778    1.9422    2.0503 C   0  0  0  0  0  0  0  0  0  0  0  0
    2.7576    1.3327   -1.6388 C   0  0  0  0  0  0  0  0  0  0  0  0
    3.0524    2.2184   -2.2393 H   0  0  0  0  0  0  0  0  0  0  0  0
    1.7465    1.0213   -1.9526 H   0  0  0  0  0  0  0  0  0  0  0  0
    3.4559    0.5125   -1.8965 H   0  0  0  0  0  0  0  0  0  0  0  0
    0.5688    1.9668    2.9468 C   0  0  0  0  0  0  0  0  0  0  0  0
    0.8549    2.1926    3.9918 H   0  0  0  0  0  0  0  0  0  0  0  0
    0.0338    0.9956    2.9462 H   0  0  0  0  0  0  0  0  0  0  0  0
   -0.1837    2.7111    2.6237 H   0  0  0  0  0  0  0  0  0  0  0  0
    0.6366    3.9396   -1.8032 C   0  0  0  0  0  0  0  0  0  0  0  0
    0.0625    4.8150   -2.1709 H   0  0  0  0  0  0  0  0  0  0  0  0
    1.0213    3.3763   -2.6719 H   0  0  0  0  0  0  0  0  0  0  0  0
    1.5098    4.3249   -1.2367 H   0  0  0  0  0  0  0  0  0  0  0  0
   -1.2499    4.1284    0.5491 C   0  0  0  0  0  0  0  0  0  0  0  0
   -1.8291    4.8901   -0.0127 H   0  0  0  0  0  0  0  0  0  0  0  0
   -0.4597    4.6629    1.1161 H   0  0  0  0  0  0  0  0  0  0  0  0
   -1.9205    3.6212    1.2675 H   0  0  0  0  0  0  0  0  0  0  0  0
   -1.2751    1.6141   -2.8979 C   0  0  0  0  0  0  0  0  0  0  0  0
   -1.3399    2.5196   -3.5422 H   0  0  0  0  0  0  0  0  0  0  0  0
   -1.9283    0.8253   -3.3199 H   0  0  0  0  0  0  0  0  0  0  0  0
   -0.2302    1.2463   -2.9264 H   0  0  0  0  0  0  0  0  0  0  0  0
   -3.0839    2.3779   -1.4959 C   0  0  0  0  0  0  0  0  0  0  0  0
   -3.2115    3.2894   -2.1233 H   0  0  0  0  0  0  0  0  0  0  0  0
   -3.4066    2.5936   -0.4622 H   0  0  0  0  0  0  0  0  0  0  0  0
   -3.7378    1.5776   -1.8975 H   0  0  0  0  0  0  0  0  0  0  0  0
  1  2  1  0  0  0  0
  1 25  1  0  0  0  0
  2  4  1  0  0  0  0
  3 33  1  0  0  0  0
  3  1  1  0  0  0  0
  4 12  1  0  0  0  0
  5  6  1  0  0  0  0
  5  4  2  0  0  0  0
  6  8  2  0  0  0  0
  7  6  1  0  0  0  0
  8  9  1  0  0  0  0
  8 10  1  0  0  0  0
 10 11  1  0  0  0  0
 12 10  2  0  0  0  0
 12 17  1  0  0  0  0
 13  5  1  0  0  0  0
 14 13  1  0  0  0  0
 15 13  1  0  0  0  0
 16 13  1  0  0  0  0
 17 18  1  0  0  0  0
 19 17  1  0  0  0  0
 20 17  1  0  0  0  0
 21 24  1  0  0  0  0
 21  1  1  0  0  0  0
 22 21  1  0  0  0  0
 23 21  1  0  0  0  0
 25 27  1  0  0  0  0
 25 28  1  0  0  0  0
 26 25  1  0  0  0  0
 29  3  1  0  0  0  0
 30 29  1  0  0  0  0
 31 29  1  0  0  0  0
 32 29  1  0  0  0  0
 33 35  1  0  0  0  0
 34 33  1  0  0  0  0
 36 33  1  0  0  0  0
M  END
