1,7
 OpenBabel05122313053D

 32 35  0  0  1  0  0  0  0  0999 V2000
   -0.7213    1.2795   -0.6364 N   0  0  2  0  0  0  0  0  0  0  0  0
   -0.6397    2.6769   -0.1409 C   0  0  0  0  0  0  0  0  0  0  0  0
   -1.3165    2.6035    1.2696 C   0  0  0  0  0  0  0  0  0  0  0  0
   -1.7773    1.2102    1.4541 N   0  0  2  0  0  0  0  0  0  0  0  0
   -0.9216    0.4265    2.3725 C   0  0  0  0  0  0  0  0  0  0  0  0
   -0.9143   -1.0763    2.0839 C   0  0  0  0  0  0  0  0  0  0  0  0
   -0.7246   -1.2776    0.6364 N   0  0  1  0  0  0  0  0  0  0  0  0
   -0.6465   -2.6752    0.1407 C   0  0  0  0  0  0  0  0  0  0  0  0
   -1.3239   -2.6001   -1.2695 C   0  0  0  0  0  0  0  0  0  0  0  0
   -1.7807   -1.2055   -1.4540 N   0  0  2  0  0  0  0  0  0  0  0  0
   -0.9226   -0.4243   -2.3724 C   0  0  0  0  0  0  0  0  0  0  0  0
   -0.9113    1.0785   -2.0840 C   0  0  0  0  0  0  0  0  0  0  0  0
   -1.9162    0.7468    0.0975 C   0  0  2  0  0  0  0  0  0  0  0  0
   -1.9181   -0.7418   -0.0975 C   0  0  2  0  0  0  0  0  0  0  0  0
    0.4229    2.9880   -0.1370 H   0  0  0  0  0  0  0  0  0  0  0  0
   -1.2146    3.3423   -0.8222 H   0  0  0  0  0  0  0  0  0  0  0  0
   -2.1758    3.3046    1.3177 H   0  0  0  0  0  0  0  0  0  0  0  0
   -0.6155    2.8778    2.0802 H   0  0  0  0  0  0  0  0  0  0  0  0
   -1.2820    0.5876    3.4115 H   0  0  0  0  0  0  0  0  0  0  0  0
    0.1386    0.7725    2.3269 H   0  0  0  0  0  0  0  0  0  0  0  0
   -0.0698   -1.5479    2.6216 H   0  0  0  0  0  0  0  0  0  0  0  0
   -1.8658   -1.5666    2.3986 H   0  0  0  0  0  0  0  0  0  0  0  0
   -1.2226   -3.3393    0.8222 H   0  0  0  0  0  0  0  0  0  0  0  0
    0.4153   -2.9888    0.1363 H   0  0  0  0  0  0  0  0  0  0  0  0
   -2.1854   -3.2986   -1.3168 H   0  0  0  0  0  0  0  0  0  0  0  0
   -0.6242   -2.8767   -2.0805 H   0  0  0  0  0  0  0  0  0  0  0  0
   -1.2832   -0.5846   -3.4114 H   0  0  0  0  0  0  0  0  0  0  0  0
    0.1367   -0.7732   -2.3264 H   0  0  0  0  0  0  0  0  0  0  0  0
   -0.0654    1.5478   -2.6215 H   0  0  0  0  0  0  0  0  0  0  0  0
   -1.8615    1.5714   -2.3988 H   0  0  0  0  0  0  0  0  0  0  0  0
   -2.8306    1.2009   -0.3585 H   0  0  0  0  0  0  0  0  0  0  0  0
   -2.8337   -1.1934    0.3586 H   0  0  0  0  0  0  0  0  0  0  0  0
  1 12  1  6  0  0  0
  1  2  1  0  0  0  0
  1 13  1  0  0  0  0
  2 15  1  0  0  0  0
  2  3  1  0  0  0  0
  3 17  1  0  0  0  0
  3 18  1  0  0  0  0
  4  3  1  6  0  0  0
  4  5  1  0  0  0  0
  5 19  1  0  0  0  0
  6  5  1  0  0  0  0
  6 22  1  0  0  0  0
  6 21  1  0  0  0  0
  7  8  1  1  0  0  0
  7  6  1  0  0  0  0
  8 23  1  0  0  0  0
  9  8  1  0  0  0  0
 10 11  1  6  0  0  0
 10  9  1  0  0  0  0
 10 14  1  0  0  0  0
 11 28  1  0  0  0  0
 11 12  1  0  0  0  0
 13 31  1  6  0  0  0
 13  4  1  0  0  0  0
 14 13  1  0  0  0  0
 14 32  1  1  0  0  0
 14  7  1  0  0  0  0
 16  2  1  0  0  0  0
 20  5  1  0  0  0  0
 24  8  1  0  0  0  0
 25  9  1  0  0  0  0
 26  9  1  0  0  0  0
 27 11  1  0  0  0  0
 29 12  1  0  0  0  0
 30 12  1  0  0  0  0
M  END
