1,3
 OpenBabel05122313053D

 18 19  0  0  1  0  0  0  0  0999 V2000
    0.5082    1.3299   -0.5991 N   0  0  0  0  0  2  0  0  0  0  0  0
    2.8132    2.8670   -1.0538 N   0  0  0  0  0  0  0  0  0  0  0  0
    0.5082   -1.3299   -0.5990 N   0  0  0  0  0  2  0  0  0  0  0  0
    2.8132   -2.8670   -1.0538 N   0  0  0  0  0  0  0  0  0  0  0  0
    0.4573    2.6778   -0.6167 C   0  0  0  0  0  3  0  0  0  0  0  0
   -0.5199    3.1443   -0.4265 H   0  0  0  0  0  0  0  0  0  0  0  0
    1.6127    3.4338   -0.8486 C   0  0  0  0  0  0  0  0  0  0  0  0
    1.5597    4.5353   -0.8594 H   0  0  0  0  0  0  0  0  0  0  0  0
    2.8582    1.5332   -1.0365 C   0  0  0  0  0  0  0  0  0  0  0  0
    3.8432    1.0656   -1.1941 H   0  0  0  0  0  0  0  0  0  0  0  0
    1.7141    0.7345   -0.8229 C   0  0  0  0  0  0  0  0  0  0  0  0
    1.7141   -0.7345   -0.8229 C   0  0  2  0  0  3  0  0  0  0  0  0
    2.8581   -1.5333   -1.0365 C   0  0  0  0  0  0  0  0  0  0  0  0
    3.8432   -1.0657   -1.1943 H   0  0  0  0  0  0  0  0  0  0  0  0
    1.6127   -3.4338   -0.8486 C   0  0  0  0  0  0  0  0  0  0  0  0
    1.5597   -4.5353   -0.8593 H   0  0  0  0  0  0  0  0  0  0  0  0
    0.4573   -2.6778   -0.6167 C   0  0  0  0  0  0  0  0  0  0  0  0
   -0.5199   -3.1443   -0.4264 H   0  0  0  0  0  0  0  0  0  0  0  0
  2  9  1  0  0  0  0
  2  7  2  0  0  0  0
  4 13  2  0  0  0  0
  4 15  1  0  0  0  0
  5  1  1  0  0  0  0
  5  6  1  0  0  0  0
  7  5  1  0  0  0  0
  8  7  1  0  0  0  0
  9 11  2  0  0  0  0
 10  9  1  0  0  0  0
 11  1  1  0  0  0  0
 12 11  1  6  0  0  0
 12  3  1  0  0  0  0
 13 12  1  0  0  0  0
 14 13  1  0  0  0  0
 15 17  2  0  0  0  0
 16 15  1  0  0  0  0
 17  3  1  0  0  0  0
 17 18  1  0  0  0  0
M  END
