1,2
 OpenBabel05122313053D

 13 14  0  0  1  0  0  0  0  0999 V2000
    1.3416    0.0998   -1.4009 N   0  0  0  0  0  0  0  0  0  0  0  0
    1.3323   -0.9737    1.1177 N   0  0  0  0  0  2  0  0  0  0  0  0
    1.0737   -1.4806    2.3502 N   0  0  0  0  0  0  0  0  0  0  0  0
    3.2721    0.1231   -2.4809 N   0  0  0  0  0  0  0  0  0  0  0  0
    2.3168    0.7760   -3.1968 N   0  0  0  0  0  0  0  0  0  0  0  0
    2.1164   -2.0507    2.8295 N   0  0  0  0  0  0  0  0  0  0  0  0
    3.1018   -1.9288    1.8846 N   0  0  0  0  0  0  0  0  0  0  0  0
    4.0341   -2.3089    2.0565 H   0  0  0  0  0  0  0  0  0  0  0  0
    3.2458   -0.9599   -0.3371 N   0  0  0  0  0  0  0  0  0  0  0  0
    1.1734    0.7768   -2.5639 N   0  0  0  0  0  0  0  0  0  0  0  0
    2.6354   -0.2679   -1.3841 C   0  0  0  0  0  3  0  0  0  0  0  0
    2.6106   -1.2622    0.8099 C   0  0  1  0  0  3  0  0  0  0  0  0
    4.2317   -1.1882   -0.4731 H   0  0  0  0  0  0  0  0  0  0  0  0
  1 11  1  0  0  0  0
  2  3  1  0  0  0  0
  3  6  2  0  0  0  0
  4 11  1  0  0  0  0
  5 10  1  0  0  0  0
  5  4  2  0  0  0  0
  7  8  1  0  0  0  0
  7  6  1  0  0  0  0
 10  1  2  0  0  0  0
 11  9  1  0  0  0  0
 12  9  1  6  0  0  0
 12  2  1  0  0  0  0
 12  7  1  0  0  0  0
 13  9  1  0  0  0  0
M  END
