1,4
 OpenBabel05122313053D

 66 67  0  0  0  0  0  0  0  0999 V2000
   -1.4039   -0.0786    0.8061 N   0  0  0  0  0  2  0  0  0  0  0  0
   -1.2266   -0.1624    2.1223 C   0  0  0  0  0  3  0  0  0  0  0  0
   -2.1400   -0.0889    2.7437 H   0  0  0  0  0  0  0  0  0  0  0  0
    1.4038   -0.0784    0.8063 N   0  0  0  0  0  2  0  0  0  0  0  0
   -0.0001   -0.2806    2.7903 C   0  0  0  0  0  0  0  0  0  0  0  0
   -0.0002   -0.3464    3.8851 H   0  0  0  0  0  0  0  0  0  0  0  0
    1.2264   -0.1622    2.1225 C   0  0  0  0  0  0  0  0  0  0  0  0
    2.1397   -0.0885    2.7440 H   0  0  0  0  0  0  0  0  0  0  0  0
   -2.7465    0.1908    0.3916 C   0  0  0  0  0  0  0  0  0  0  0  0
   -3.6912   -0.8663    0.2978 C   0  0  0  0  0  0  0  0  0  0  0  0
   -5.0023   -0.5528   -0.1129 C   0  0  0  0  0  0  0  0  0  0  0  0
   -5.7509   -1.3562   -0.1884 H   0  0  0  0  0  0  0  0  0  0  0  0
   -5.3700    0.7609   -0.4272 C   0  0  0  0  0  0  0  0  0  0  0  0
   -6.3998    0.9835   -0.7458 H   0  0  0  0  0  0  0  0  0  0  0  0
   -4.4242    1.7922   -0.3366 C   0  0  0  0  0  0  0  0  0  0  0  0
   -4.7196    2.8227   -0.5844 H   0  0  0  0  0  0  0  0  0  0  0  0
   -3.1044    1.5298    0.0710 C   0  0  0  0  0  0  0  0  0  0  0  0
   -2.0696    2.6398    0.2024 C   0  0  0  0  0  0  0  0  0  0  0  0
   -1.0815    2.1480    0.0687 H   0  0  0  0  0  0  0  0  0  0  0  0
   -2.0906    3.2497    1.6154 C   0  0  0  0  0  0  0  0  0  0  0  0
   -3.0716    3.7236    1.8287 H   0  0  0  0  0  0  0  0  0  0  0  0
   -1.3044    4.0265    1.7183 H   0  0  0  0  0  0  0  0  0  0  0  0
   -1.9062    2.4811    2.3909 H   0  0  0  0  0  0  0  0  0  0  0  0
   -2.1980    3.7294   -0.8692 C   0  0  0  0  0  0  0  0  0  0  0  0
   -2.2268    3.3004   -1.8914 H   0  0  0  0  0  0  0  0  0  0  0  0
   -1.3340    4.4230   -0.8153 H   0  0  0  0  0  0  0  0  0  0  0  0
   -3.1137    4.3430   -0.7371 H   0  0  0  0  0  0  0  0  0  0  0  0
   -3.3099   -2.2988    0.6600 C   0  0  0  0  0  0  0  0  0  0  0  0
   -2.2010   -2.3511    0.6200 H   0  0  0  0  0  0  0  0  0  0  0  0
   -3.8735   -3.3406   -0.3200 C   0  0  0  0  0  0  0  0  0  0  0  0
   -4.9775   -3.4229   -0.2466 H   0  0  0  0  0  0  0  0  0  0  0  0
   -3.4591   -4.3448   -0.0957 H   0  0  0  0  0  0  0  0  0  0  0  0
   -3.6300   -3.0999   -1.3745 H   0  0  0  0  0  0  0  0  0  0  0  0
   -3.7422   -2.6451    2.0975 C   0  0  0  0  0  0  0  0  0  0  0  0
   -3.2838   -1.9644    2.8399 H   0  0  0  0  0  0  0  0  0  0  0  0
   -3.4452   -3.6818    2.3593 H   0  0  0  0  0  0  0  0  0  0  0  0
   -4.8444   -2.5680    2.2049 H   0  0  0  0  0  0  0  0  0  0  0  0
    2.7464    0.1910    0.3918 C   0  0  0  0  0  0  0  0  0  0  0  0
    3.1041    1.5301    0.0713 C   0  0  0  0  0  0  0  0  0  0  0  0
    4.4238    1.7927   -0.3364 C   0  0  0  0  0  0  0  0  0  0  0  0
    4.7190    2.8234   -0.5841 H   0  0  0  0  0  0  0  0  0  0  0  0
    5.0023   -0.5521   -0.1129 C   0  0  0  0  0  0  0  0  0  0  0  0
    5.7510   -1.3554   -0.1886 H   0  0  0  0  0  0  0  0  0  0  0  0
    3.6913   -0.8660    0.2978 C   0  0  0  0  0  0  0  0  0  0  0  0
    3.3103   -2.2986    0.6598 C   0  0  0  0  0  0  0  0  0  0  0  0
    2.2014   -2.3513    0.6195 H   0  0  0  0  0  0  0  0  0  0  0  0
    3.8745   -3.3401   -0.3201 C   0  0  0  0  0  0  0  0  0  0  0  0
    3.6312   -3.0994   -1.3747 H   0  0  0  0  0  0  0  0  0  0  0  0
    3.4604   -4.3444   -0.0960 H   0  0  0  0  0  0  0  0  0  0  0  0
    4.9786   -3.4220   -0.2465 H   0  0  0  0  0  0  0  0  0  0  0  0
    3.7425   -2.6450    2.0973 C   0  0  0  0  0  0  0  0  0  0  0  0
    4.8446   -2.5675    2.2050 H   0  0  0  0  0  0  0  0  0  0  0  0
    3.4457   -3.6817    2.3590 H   0  0  0  0  0  0  0  0  0  0  0  0
    3.2837   -1.9645    2.8397 H   0  0  0  0  0  0  0  0  0  0  0  0
    2.0691    2.6399    0.2028 C   0  0  0  0  0  0  0  0  0  0  0  0
    1.0811    2.1479    0.0691 H   0  0  0  0  0  0  0  0  0  0  0  0
    2.0900    3.2496    1.6158 C   0  0  0  0  0  0  0  0  0  0  0  0
    1.9058    2.4808    2.3913 H   0  0  0  0  0  0  0  0  0  0  0  0
    1.3036    4.0262    1.7189 H   0  0  0  0  0  0  0  0  0  0  0  0
    3.0709    3.7237    1.8292 H   0  0  0  0  0  0  0  0  0  0  0  0
    2.1972    3.7296   -0.8686 C   0  0  0  0  0  0  0  0  0  0  0  0
    3.1127    4.3434   -0.7366 H   0  0  0  0  0  0  0  0  0  0  0  0
    1.3330    4.4230   -0.8147 H   0  0  0  0  0  0  0  0  0  0  0  0
    2.2260    3.3007   -1.8909 H   0  0  0  0  0  0  0  0  0  0  0  0
    5.3698    0.7616   -0.4272 C   0  0  0  0  0  0  0  0  0  0  0  0
    6.3995    0.9845   -0.7458 H   0  0  0  0  0  0  0  0  0  0  0  0
  1  2  1  0  0  0  0
  2  3  1  0  0  0  0
  2  5  1  0  0  0  0
  4  7  1  0  0  0  0
  5  6  1  0  0  0  0
  7  8  1  0  0  0  0
  7  5  2  0  0  0  0
  9  1  1  0  0  0  0
 10  9  1  0  0  0  0
 10 28  1  0  0  0  0
 11 10  2  0  0  0  0
 12 11  1  0  0  0  0
 13 15  2  0  0  0  0
 13 11  1  0  0  0  0
 14 13  1  0  0  0  0
 15 17  1  0  0  0  0
 16 15  1  0  0  0  0
 17 18  1  0  0  0  0
 17  9  2  0  0  0  0
 18 20  1  0  0  0  0
 19 18  1  0  0  0  0
 20 22  1  0  0  0  0
 20 21  1  0  0  0  0
 20 23  1  0  0  0  0
 24 26  1  0  0  0  0
 24 27  1  0  0  0  0
 24 18  1  0  0  0  0
 25 24  1  0  0  0  0
 28 34  1  0  0  0  0
 29 28  1  0  0  0  0
 30 31  1  0  0  0  0
 30 32  1  0  0  0  0
 30 28  1  0  0  0  0
 33 30  1  0  0  0  0
 34 37  1  0  0  0  0
 34 36  1  0  0  0  0
 34 35  1  0  0  0  0
 38  4  1  0  0  0  0
 39 55  1  0  0  0  0
 39 38  2  0  0  0  0
 40 39  1  0  0  0  0
 41 40  1  0  0  0  0
 42 44  2  0  0  0  0
 43 42  1  0  0  0  0
 44 38  1  0  0  0  0
 44 45  1  0  0  0  0
 45 51  1  0  0  0  0
 46 45  1  0  0  0  0
 47 50  1  0  0  0  0
 47 49  1  0  0  0  0
 47 45  1  0  0  0  0
 48 47  1  0  0  0  0
 51 52  1  0  0  0  0
 51 53  1  0  0  0  0
 51 54  1  0  0  0  0
 55 57  1  0  0  0  0
 56 55  1  0  0  0  0
 57 59  1  0  0  0  0
 57 60  1  0  0  0  0
 57 58  1  0  0  0  0
 61 63  1  0  0  0  0
 61 62  1  0  0  0  0
 61 55  1  0  0  0  0
 64 61  1  0  0  0  0
 65 40  2  0  0  0  0
 65 42  1  0  0  0  0
 66 65  1  0  0  0  0
M  END
