5,6
 OpenBabel05122313053D

 55 58  0  0  1  0  0  0  0  0999 V2000
    1.9189   -2.4987    1.6328 O   0  0  0  0  0  0  0  0  0  0  0  0
    4.1253    1.0398    1.7856 O   0  0  0  0  0  0  0  0  0  0  0  0
   -2.1339   -3.4771    0.3371 O   0  0  0  0  0  0  0  0  0  0  0  0
   -2.5016   -1.7827    2.8783 O   0  0  0  0  0  0  0  0  0  0  0  0
    1.0333   -0.6353    0.7473 N   0  0  0  0  0  2  0  0  0  0  0  0
   -1.7038   -1.2800    0.2221 N   0  0  0  0  0  2  0  0  0  0  0  0
    1.0592   -1.9354    0.7802 C   0  0  2  0  0  3  0  0  0  0  0  0
    2.4891   -1.4119    2.4266 C   0  0  0  0  0  0  0  0  0  0  0  0
    2.1174   -0.1526    1.6240 C   0  0  1  0  0  0  0  0  0  0  0  0
    3.2947    0.4389    0.8060 C   0  0  2  0  0  0  0  0  0  0  0  0
   -1.2473   -2.4931    0.1837 C   0  0  2  0  0  3  0  0  0  0  0  0
   -3.4426   -2.8415    0.4557 C   0  0  0  0  0  0  0  0  0  0  0  0
   -3.1154   -1.3415    0.6348 C   0  0  1  0  0  0  0  0  0  0  0  0
   -3.2631   -0.8720    2.1041 C   0  0  2  0  0  0  0  0  0  0  0  0
    0.2008   -2.8787   -0.0554 C   0  0  0  0  0  0  0  0  0  0  0  0
    0.5040   -2.6626   -1.5633 C   0  0  0  0  0  0  0  0  0  0  0  0
    0.4521   -4.3447    0.3366 C   0  0  0  0  0  0  0  0  0  0  0  0
    4.0165   -0.5809   -0.0563 C   0  0  0  0  0  0  0  0  0  0  0  0
    3.5303   -0.8884   -1.3429 C   0  0  0  0  0  0  0  0  0  0  0  0
    4.1758   -1.8456   -2.1400 C   0  0  0  0  0  0  0  0  0  0  0  0
    5.3203   -2.5048   -1.6616 C   0  0  0  0  0  0  0  0  0  0  0  0
    5.8230   -2.1903   -0.3893 C   0  0  0  0  0  0  0  0  0  0  0  0
    5.1779   -1.2314    0.4066 C   0  0  0  0  0  0  0  0  0  0  0  0
   -2.8445    0.5760    2.2996 C   0  0  0  0  0  0  0  0  0  0  0  0
   -1.5312    0.8909    2.7052 C   0  0  0  0  0  0  0  0  0  0  0  0
   -1.1369    2.2301    2.8643 C   0  0  0  0  0  0  0  0  0  0  0  0
   -2.0426    3.2686    2.5972 C   0  0  0  0  0  0  0  0  0  0  0  0
   -3.3538    2.9614    2.1924 C   0  0  0  0  0  0  0  0  0  0  0  0
   -3.7528    1.6230    2.0536 C   0  0  0  0  0  0  0  0  0  0  0  0
    4.8197    1.5324    1.3091 H   0  0  0  0  0  0  0  0  0  0  0  0
   -2.6416   -1.5719    3.8198 H   0  0  0  0  0  0  0  0  0  0  0  0
    2.0180   -1.4560    3.4293 H   0  0  0  0  0  0  0  0  0  0  0  0
    3.5760   -1.5842    2.5149 H   0  0  0  0  0  0  0  0  0  0  0  0
    1.7514    0.6670    2.2733 H   0  0  0  0  0  0  0  0  0  0  0  0
    2.8439    1.1986    0.1368 H   0  0  0  0  0  0  0  0  0  0  0  0
   -3.9542   -3.2943    1.3241 H   0  0  0  0  0  0  0  0  0  0  0  0
   -4.0015   -3.0546   -0.4771 H   0  0  0  0  0  0  0  0  0  0  0  0
   -0.8376    0.0690    2.9334 H   0  0  0  0  0  0  0  0  0  0  0  0
   -4.3538   -0.9557    2.3355 H   0  0  0  0  0  0  0  0  0  0  0  0
   -0.1656   -3.3033   -2.1688 H   0  0  0  0  0  0  0  0  0  0  0  0
    0.3452   -1.6030   -1.8459 H   0  0  0  0  0  0  0  0  0  0  0  0
    1.5542   -2.9370   -1.7747 H   0  0  0  0  0  0  0  0  0  0  0  0
   -0.1783   -5.0087   -0.2817 H   0  0  0  0  0  0  0  0  0  0  0  0
    0.2163   -4.5297    1.4004 H   0  0  0  0  0  0  0  0  0  0  0  0
    1.5145   -4.5969    0.1661 H   0  0  0  0  0  0  0  0  0  0  0  0
    2.6459   -0.3549   -1.7228 H   0  0  0  0  0  0  0  0  0  0  0  0
    3.7945   -2.0684   -3.1486 H   0  0  0  0  0  0  0  0  0  0  0  0
    5.8308   -3.2510   -2.2886 H   0  0  0  0  0  0  0  0  0  0  0  0
    6.7301   -2.6897   -0.0168 H   0  0  0  0  0  0  0  0  0  0  0  0
    5.5849   -0.9585    1.3922 H   0  0  0  0  0  0  0  0  0  0  0  0
   -3.7347   -0.6964   -0.0176 H   0  0  0  0  0  0  0  0  0  0  0  0
   -0.1149    2.4626    3.2018 H   0  0  0  0  0  0  0  0  0  0  0  0
   -1.7376    4.3180    2.7256 H   0  0  0  0  0  0  0  0  0  0  0  0
   -4.0752    3.7708    2.0044 H   0  0  0  0  0  0  0  0  0  0  0  0
   -4.7883    1.3883    1.7583 H   0  0  0  0  0  0  0  0  0  0  0  0
  1  8  1  0  0  0  0
  3 12  1  0  0  0  0
  4 31  1  0  0  0  0
  5  7  1  0  0  0  0
  5  9  1  0  0  0  0
  6 13  1  0  0  0  0
  7 15  1  1  0  0  0
  7  1  1  0  0  0  0
  8 33  1  0  0  0  0
  8 32  1  0  0  0  0
  9 34  1  1  0  0  0
  9  8  1  0  0  0  0
 10 35  1  6  0  0  0
 10  9  1  0  0  0  0
 10  2  1  0  0  0  0
 11 15  1  6  0  0  0
 11  6  1  0  0  0  0
 11  3  1  0  0  0  0
 12 13  1  0  0  0  0
 12 36  1  0  0  0  0
 13 51  1  6  0  0  0
 13 14  1  0  0  0  0
 14 24  1  0  0  0  0
 14 39  1  1  0  0  0
 14  4  1  0  0  0  0
 15 17  1  0  0  0  0
 16 15  1  0  0  0  0
 17 44  1  0  0  0  0
 18 23  1  0  0  0  0
 18 10  1  0  0  0  0
 19 18  2  0  0  0  0
 20 21  2  0  0  0  0
 20 19  1  0  0  0  0
 21 22  1  0  0  0  0
 22 49  1  0  0  0  0
 22 23  2  0  0  0  0
 23 50  1  0  0  0  0
 24 25  1  0  0  0  0
 25 26  2  0  0  0  0
 25 38  1  0  0  0  0
 26 52  1  0  0  0  0
 27 53  1  0  0  0  0
 27 26  1  0  0  0  0
 28 27  2  0  0  0  0
 29 28  1  0  0  0  0
 29 24  2  0  0  0  0
 30  2  1  0  0  0  0
 37 12  1  0  0  0  0
 40 16  1  0  0  0  0
 41 16  1  0  0  0  0
 42 16  1  0  0  0  0
 43 17  1  0  0  0  0
 45 17  1  0  0  0  0
 46 19  1  0  0  0  0
 47 20  1  0  0  0  0
 48 21  1  0  0  0  0
 54 28  1  0  0  0  0
 55 29  1  0  0  0  0
M  END
