1,3
 OpenBabel05122313053D

 38 40  0  0  1  0  0  0  0  0999 V2000
    0.0584    2.0666    0.1103 N   0  0  0  0  0  2  0  0  0  0  0  0
   -1.5853   -0.0389   -1.0446 N   0  0  0  0  0  0  0  0  0  0  0  0
    0.1593   -2.0611    0.1115 N   0  0  0  0  0  2  0  0  0  0  0  0
    0.5248    3.0485    0.9061 C   0  0  0  0  0  3  0  0  0  0  0  0
    1.2114    2.7235    1.7083 H   0  0  0  0  0  0  0  0  0  0  0  0
    0.1688    4.3890    0.7210 C   0  0  0  0  0  0  0  0  0  0  0  0
    0.5671    5.1629    1.3922 H   0  0  0  0  0  0  0  0  0  0  0  0
   -0.6921    4.7079   -0.3398 C   0  0  0  0  0  0  0  0  0  0  0  0
   -0.9858    5.7515   -0.5292 H   0  0  0  0  0  0  0  0  0  0  0  0
   -1.1867    3.6775   -1.1485 C   0  0  0  0  0  0  0  0  0  0  0  0
   -1.8852    3.8881   -1.9722 H   0  0  0  0  0  0  0  0  0  0  0  0
   -0.7991    2.3500   -0.8888 C   0  0  0  0  0  0  0  0  0  0  0  0
   -1.2981    1.2054   -1.7551 C   0  0  0  0  0  0  0  0  0  0  0  0
   -2.1805    1.5631   -2.3360 H   0  0  0  0  0  0  0  0  0  0  0  0
   -0.4773    0.9880   -2.4747 H   0  0  0  0  0  0  0  0  0  0  0  0
   -1.2378   -1.2682   -1.7544 C   0  0  0  0  0  0  0  0  0  0  0  0
   -0.4290   -1.0114   -2.4746 H   0  0  0  0  0  0  0  0  0  0  0  0
   -2.1020   -1.6689   -2.3346 H   0  0  0  0  0  0  0  0  0  0  0  0
   -0.6831   -2.3865   -0.8878 C   0  0  1  0  0  3  0  0  0  0  0  0
   -1.0048   -3.7315   -1.1472 C   0  0  0  0  0  0  0  0  0  0  0  0
   -1.6921   -3.9763   -1.9710 H   0  0  0  0  0  0  0  0  0  0  0  0
   -0.4603   -4.7362   -0.3384 C   0  0  0  0  0  0  0  0  0  0  0  0
   -0.7022   -5.7931   -0.5277 H   0  0  0  0  0  0  0  0  0  0  0  0
    0.3837   -4.3752    0.7225 C   0  0  0  0  0  0  0  0  0  0  0  0
    0.8195   -5.1285    1.3939 H   0  0  0  0  0  0  0  0  0  0  0  0
    0.6733   -3.0188    0.9075 C   0  0  0  0  0  0  0  0  0  0  0  0
    1.3429   -2.6603    1.7097 H   0  0  0  0  0  0  0  0  0  0  0  0
   -2.7173   -0.0664   -0.1975 C   0  0  0  0  0  0  0  0  0  0  0  0
   -3.3432    1.1289    0.2409 C   0  0  0  0  0  0  0  0  0  0  0  0
   -2.9646    2.1071   -0.0739 H   0  0  0  0  0  0  0  0  0  0  0  0
   -4.4536    1.0953    1.0941 C   0  0  0  0  0  0  0  0  0  0  0  0
   -4.9040    2.0474    1.4141 H   0  0  0  0  0  0  0  0  0  0  0  0
   -4.9910   -0.1217    1.5358 C   0  0  0  0  0  0  0  0  0  0  0  0
   -5.8615   -0.1429    2.2074 H   0  0  0  0  0  0  0  0  0  0  0  0
   -4.3944   -1.3111    1.0950 C   0  0  0  0  0  0  0  0  0  0  0  0
   -4.7975   -2.2840    1.4157 H   0  0  0  0  0  0  0  0  0  0  0  0
   -3.2837   -1.2908    0.2418 C   0  0  0  0  0  0  0  0  0  0  0  0
   -2.8574   -2.2495   -0.0722 H   0  0  0  0  0  0  0  0  0  0  0  0
  1  4  1  0  0  0  0
  2 28  1  0  0  0  0
  3 26  1  0  0  0  0
  4  5  1  0  0  0  0
  6  4  1  0  0  0  0
  6  7  1  0  0  0  0
  8  6  2  0  0  0  0
  9  8  1  0  0  0  0
 10 12  2  0  0  0  0
 10  8  1  0  0  0  0
 11 10  1  0  0  0  0
 12  1  1  0  0  0  0
 13  2  1  0  0  0  0
 13 12  1  0  0  0  0
 14 13  1  0  0  0  0
 15 13  1  0  0  0  0
 16  2  1  0  0  0  0
 17 16  1  0  0  0  0
 18 16  1  0  0  0  0
 19 16  1  6  0  0  0
 19  3  1  0  0  0  0
 20 19  1  0  0  0  0
 20 22  2  0  0  0  0
 21 20  1  0  0  0  0
 22 24  1  0  0  0  0
 23 22  1  0  0  0  0
 24 26  2  0  0  0  0
 24 25  1  0  0  0  0
 26 27  1  0  0  0  0
 28 29  2  0  0  0  0
 28 37  1  0  0  0  0
 29 31  1  0  0  0  0
 30 29  1  0  0  0  0
 31 32  1  0  0  0  0
 31 33  2  0  0  0  0
 33 34  1  0  0  0  0
 35 36  1  0  0  0  0
 35 33  1  0  0  0  0
 37 35  2  0  0  0  0
 38 37  1  0  0  0  0
M  END
