27,28
 OpenBabel05122313053D

 32 36  0  0  0  0  0  0  0  0999 V2000
    8.8640   -1.0255   -0.3136 Br  0  0  0  0  0  0  0  0  0  0  0  0
   -2.0566   -2.1978   -1.4350 C   0  0  0  0  0  0  0  0  0  0  0  0
   -3.0380   -2.5827   -1.7395 H   0  0  0  0  0  0  0  0  0  0  0  0
   -0.8714   -2.9048   -1.7191 C   0  0  0  0  0  0  0  0  0  0  0  0
   -0.9405   -3.8745   -2.2309 H   0  0  0  0  0  0  0  0  0  0  0  0
    0.3632   -2.3692   -1.3623 C   0  0  0  0  0  0  0  0  0  0  0  0
    1.2886   -2.9200   -1.5857 H   0  0  0  0  0  0  0  0  0  0  0  0
    0.4086   -1.0993   -0.7345 C   0  0  0  0  0  0  0  0  0  0  0  0
    1.5715   -0.3674   -0.3414 C   0  0  0  0  0  0  0  0  0  0  0  0
    1.5247    0.9273    0.2324 C   0  0  0  0  0  0  0  0  0  0  0  0
    0.2673    1.5899    0.4520 C   0  0  0  0  0  0  0  0  0  0  0  0
    0.1152    2.8999    0.9593 C   0  0  0  0  0  0  0  0  0  0  0  0
    1.0098    3.4760    1.2357 H   0  0  0  0  0  0  0  0  0  0  0  0
   -1.1699    3.4271    1.0703 C   0  0  0  0  0  0  0  0  0  0  0  0
   -1.3351    4.4495    1.4376 H   0  0  0  0  0  0  0  0  0  0  0  0
   -2.2855    2.6488    0.7000 C   0  0  0  0  0  0  0  0  0  0  0  0
   -3.3054    3.0516    0.7544 H   0  0  0  0  0  0  0  0  0  0  0  0
   -0.9065    0.8634    0.1027 C   0  0  0  0  0  0  0  0  0  0  0  0
   -0.8409   -0.4481   -0.4744 C   0  0  0  0  0  0  0  0  0  0  0  0
    3.6111    0.4263    0.0962 C   0  0  0  0  0  0  0  0  0  0  0  0
    5.0497    0.4836    0.1846 C   0  0  0  0  0  0  0  0  0  0  0  0
    6.0048   -0.4591   -0.1891 C   0  0  0  0  0  0  0  0  0  0  0  0
    5.7884   -1.4407   -0.6315 H   0  0  0  0  0  0  0  0  0  0  0  0
    7.3285   -0.0039    0.0696 C   0  0  0  0  0  0  0  0  0  0  0  0
    7.3695    1.2645    0.6305 C   0  0  0  0  0  0  0  0  0  0  0  0
    8.2560    1.8400    0.9223 H   0  0  0  0  0  0  0  0  0  0  0  0
   -2.0419   -1.0137   -0.8004 N   0  0  0  0  0  2  0  0  0  0  0  0
   -2.1609    1.3887    0.2529 N   0  0  0  0  0  2  0  0  0  0  0  0
    2.9163   -0.6610   -0.4176 N   0  0  0  0  0  0  0  0  0  0  0  0
    3.3353   -1.5143   -0.7871 H   0  0  0  0  0  0  0  0  0  0  0  0
    2.7798    1.3950    0.4923 N   0  0  0  0  0  0  0  0  0  0  0  0
    5.7895    1.9194    0.8496 S   0  0  0  0  0  0  0  0  0  0  0  0
  1 24  1  0  0  0  0
  2 27  1  0  0  0  0
  3  2  1  0  0  0  0
  4  2  2  0  0  0  0
  4  6  1  0  0  0  0
  5  4  1  0  0  0  0
  6  8  2  0  0  0  0
  7  6  1  0  0  0  0
  8 19  1  0  0  0  0
  8  9  1  0  0  0  0
  9 10  2  0  0  0  0
 10 11  1  0  0  0  0
 10 31  1  0  0  0  0
 11 12  2  0  0  0  0
 12 14  1  0  0  0  0
 12 13  1  0  0  0  0
 14 15  1  0  0  0  0
 16 17  1  0  0  0  0
 16 14  2  0  0  0  0
 18 28  1  0  0  0  0
 18 11  1  0  0  0  0
 19 18  2  0  0  0  0
 20 21  1  0  0  0  0
 20 31  2  0  0  0  0
 21 32  1  0  0  0  0
 22 24  1  0  0  0  0
 22 21  2  0  0  0  0
 23 22  1  0  0  0  0
 24 25  2  0  0  0  0
 25 32  1  0  0  0  0
 25 26  1  0  0  0  0
 27 19  1  0  0  0  0
 28 16  1  0  0  0  0
 29  9  1  0  0  0  0
 29 20  1  0  0  0  0
 30 29  1  0  0  0  0
M  END
