5,23
 OpenBabel05122313053D

 28 28  0  0  1  0  0  0  0  0999 V2000
   -0.3686    1.2817   -0.4381 O   0  0  0  0  0  0  0  0  0  0  0  0
    2.2640   -1.8621    0.1870 O   0  0  0  0  0  0  0  0  0  0  0  0
    1.6302    0.3010   -0.2448 N   0  0  0  0  0  0  0  0  0  0  0  0
    1.9330    1.2693   -0.3654 H   0  0  0  0  0  0  0  0  0  0  0  0
   -0.3644   -1.0251   -0.1470 N   0  0  0  0  0  2  0  0  0  0  0  0
    0.2952   -1.8078   -0.0102 H   0  0  0  0  0  0  0  0  0  0  0  0
    4.0112   -0.2401   -0.0480 C   0  0  0  0  0  0  0  0  0  0  0  0
   -1.9378    3.2210    0.3081 N   0  0  0  0  0  0  0  0  0  0  0  0
   -0.9696    3.1716    0.6274 H   0  0  0  0  0  0  0  0  0  0  0  0
   -2.5617    3.8560    0.8035 H   0  0  0  0  0  0  0  0  0  0  0  0
    4.4369    0.9924   -0.5879 C   0  0  0  0  0  0  0  0  0  0  0  0
    3.7230    1.6884   -1.0568 H   0  0  0  0  0  0  0  0  0  0  0  0
    0.2573    0.0914   -0.2657 C   0  0  2  0  0  3  0  0  0  0  0  0
    4.9689   -1.1286    0.4844 C   0  0  0  0  0  0  0  0  0  0  0  0
    4.6169   -2.0909    0.8836 H   0  0  0  0  0  0  0  0  0  0  0  0
    6.3240   -0.7805    0.4988 C   0  0  0  0  0  0  0  0  0  0  0  0
    7.0633   -1.4756    0.9236 H   0  0  0  0  0  0  0  0  0  0  0  0
   -2.4661    2.1218   -0.2719 C   0  0  2  0  0  3  0  0  0  0  0  0
   -3.9509    1.9911   -0.4134 C   0  0  0  0  0  0  0  0  0  0  0  0
   -4.3535    1.7342    0.5898 H   0  0  0  0  0  0  0  0  0  0  0  0
   -4.1945    1.1501   -1.0910 H   0  0  0  0  0  0  0  0  0  0  0  0
   -4.4071    2.9305   -0.7822 H   0  0  0  0  0  0  0  0  0  0  0  0
   -1.7695    1.1007   -0.7139 N   0  0  0  0  0  2  0  0  0  0  0  0
    6.7395    0.4529   -0.0305 C   0  0  0  0  0  0  0  0  0  0  0  0
    7.8056    0.7256   -0.0223 H   0  0  0  0  0  0  0  0  0  0  0  0
    5.7955    1.3357   -0.5792 C   0  0  0  0  0  0  0  0  0  0  0  0
    6.1199    2.2941   -1.0109 H   0  0  0  0  0  0  0  0  0  0  0  0
    2.5855   -0.6947   -0.0230 C   0  0  0  0  0  0  0  0  0  0  0  0
  3 28  1  0  0  0  0
  4  3  1  0  0  0  0
  5  6  1  0  0  0  0
  7 28  1  0  0  0  0
  7 14  1  0  0  0  0
  8  9  1  0  0  0  0
  8 10  1  0  0  0  0
 11 26  1  0  0  0  0
 11  7  2  0  0  0  0
 12 11  1  0  0  0  0
 13  1  1  6  0  0  0
 13  3  1  0  0  0  0
 13  5  1  0  0  0  0
 14 16  2  0  0  0  0
 14 15  1  0  0  0  0
 16 17  1  0  0  0  0
 18 23  1  1  0  0  0
 18  8  1  0  0  0  0
 19 18  1  0  0  0  0
 19 20  1  0  0  0  0
 21 19  1  0  0  0  0
 22 19  1  0  0  0  0
 23  1  1  0  0  0  0
 24 25  1  0  0  0  0
 24 16  1  0  0  0  0
 26 24  2  0  0  0  0
 27 26  1  0  0  0  0
 28  2  2  0  0  0  0
M  END
