11,12
 OpenBabel05122313053D

 28 29  0  0  1  0  0  0  0  0999 V2000
   -0.3102    4.1994    0.4828 O   0  0  0  0  0  0  0  0  0  0  0  0
    5.7597    0.8355   -0.1533 O   0  0  0  0  0  0  0  0  0  0  0  0
    6.0590    1.7470   -0.3156 H   0  0  0  0  0  0  0  0  0  0  0  0
    5.0674   -0.5856    1.9784 O   0  0  0  0  0  0  0  0  0  0  0  0
    5.9007   -0.3110    1.5366 H   0  0  0  0  0  0  0  0  0  0  0  0
    3.5797   -0.8763   -1.2878 O   0  0  0  0  0  0  0  0  0  0  0  0
    1.7025   -2.0569    0.8154 O   0  0  0  0  0  0  0  0  0  0  0  0
    0.9705   -2.3265    0.2091 H   0  0  0  0  0  0  0  0  0  0  0  0
    2.1426    0.9283   -0.9544 N   0  0  0  0  0  0  0  0  0  0  0  0
    1.7904    2.1562   -0.4899 N   0  0  0  0  0  0  0  0  0  0  0  0
    0.0228    0.7849   -0.6108 N   0  0  0  0  0  2  0  0  0  0  0  0
   -1.7464    2.3726    0.3103 N   0  0  0  0  0  2  0  0  0  0  0  0
   -2.5280    2.9290    0.6732 H   0  0  0  0  0  0  0  0  0  0  0  0
    1.0805    0.0996   -1.0431 C   0  0  0  0  0  3  0  0  0  0  0  0
    1.0899   -0.9336   -1.3919 H   0  0  0  0  0  0  0  0  0  0  0  0
    0.4823    2.0426   -0.2922 C   0  0  0  0  0  0  0  0  0  0  0  0
   -0.5474    3.0236    0.2186 C   0  0  0  0  0  0  0  0  0  0  0  0
    3.5553    0.5123   -1.1431 C   0  0  1  0  0  0  0  0  0  0  0  0
    3.9526    0.9994   -2.0584 H   0  0  0  0  0  0  0  0  0  0  0  0
    4.3659    0.8572    0.1192 C   0  0  1  0  0  0  0  0  0  0  0  0
    4.0311    1.8132    0.5706 H   0  0  0  0  0  0  0  0  0  0  0  0
    4.0793   -0.3728    1.0105 C   0  0  1  0  0  0  0  0  0  0  0  0
    3.1039   -0.2444    1.5239 H   0  0  0  0  0  0  0  0  0  0  0  0
    3.9419   -1.5149   -0.0291 C   0  0  1  0  0  0  0  0  0  0  0  0
    4.9361   -1.9949   -0.1714 H   0  0  0  0  0  0  0  0  0  0  0  0
    2.9297   -2.5919    0.3634 C   0  0  0  0  0  0  0  0  0  0  0  0
    2.7944   -3.2852   -0.4969 H   0  0  0  0  0  0  0  0  0  0  0  0
    3.4098   -3.1775    1.1829 H   0  0  0  0  0  0  0  0  0  0  0  0
  2 20  1  0  0  0  0
  3  2  1  0  0  0  0
  5  4  1  0  0  0  0
  6 18  1  0  0  0  0
  6 24  1  0  0  0  0
  8  7  1  0  0  0  0
  9 10  1  0  0  0  0
 10 16  2  0  0  0  0
 11 16  1  0  0  0  0
 12 13  1  0  0  0  0
 14  9  1  0  0  0  0
 14 11  1  0  0  0  0
 15 14  1  0  0  0  0
 16 17  1  0  0  0  0
 17 12  1  0  0  0  0
 17  1  2  0  0  0  0
 18 19  1  6  0  0  0
 18  9  1  0  0  0  0
 18 20  1  0  0  0  0
 20 21  1  1  0  0  0
 20 22  1  0  0  0  0
 22 23  1  1  0  0  0
 22  4  1  0  0  0  0
 24 25  1  6  0  0  0
 24 26  1  0  0  0  0
 24 22  1  0  0  0  0
 26  7  1  0  0  0  0
 26 28  1  0  0  0  0
 27 26  1  0  0  0  0
M  END
