1,8
 OpenBabel05122313053D

 50 50  0  0  0  0  0  0  0  0999 V2000
   -2.4718    0.0341   -0.2254 N   0  0  0  0  0  0  0  0  0  0  0  0
   -2.6868    1.3843   -0.7858 C   0  0  0  0  0  0  0  0  0  0  0  0
   -2.9581    2.0723    0.0374 H   0  0  0  0  0  0  0  0  0  0  0  0
   -3.5620    1.3941   -1.4743 H   0  0  0  0  0  0  0  0  0  0  0  0
   -1.4703    1.9236   -1.5411 C   0  0  0  0  0  0  0  0  0  0  0  0
   -1.2102    1.2392   -2.3715 H   0  0  0  0  0  0  0  0  0  0  0  0
   -1.7329    2.9129   -1.9833 H   0  0  0  0  0  0  0  0  0  0  0  0
   -0.2563    2.0286   -0.6996 N   0  0  0  0  0  0  0  0  0  0  0  0
    0.9610    2.2250   -1.5203 C   0  0  0  0  0  0  0  0  0  0  0  0
    0.9696    3.2400   -1.9825 H   0  0  0  0  0  0  0  0  0  0  0  0
    0.9121    1.4715   -2.3298 H   0  0  0  0  0  0  0  0  0  0  0  0
    2.2513    2.0409   -0.7234 C   0  0  0  0  0  0  0  0  0  0  0  0
    3.1122    2.2306   -1.4031 H   0  0  0  0  0  0  0  0  0  0  0  0
    2.3338    2.8140    0.0666 H   0  0  0  0  0  0  0  0  0  0  0  0
    2.3669    0.7125   -0.0792 N   0  0  0  0  0  0  0  0  0  0  0  0
    3.0030    0.7814    1.2531 C   0  0  0  0  0  0  0  0  0  0  0  0
    2.6445    1.7074    1.7476 H   0  0  0  0  0  0  0  0  0  0  0  0
    4.1129    0.8725    1.1715 H   0  0  0  0  0  0  0  0  0  0  0  0
    2.6525   -0.4125    2.1343 C   0  0  0  0  0  0  0  0  0  0  0  0
    2.9444   -1.3704    1.6597 H   0  0  0  0  0  0  0  0  0  0  0  0
    3.1893   -0.3313    3.1044 H   0  0  0  0  0  0  0  0  0  0  0  0
    1.2445   -0.5039    2.3457 O   0  0  0  0  0  0  0  0  0  0  0  0
    0.7249    0.1501    3.4914 C   0  0  0  0  0  0  0  0  0  0  0  0
    0.9903    1.2348    3.5025 H   0  0  0  0  0  0  0  0  0  0  0  0
    1.1295   -0.3137    4.4207 H   0  0  0  0  0  0  0  0  0  0  0  0
   -0.7794   -0.0086    3.4660 C   0  0  0  0  0  0  0  0  0  0  0  0
   -1.0339   -1.0880    3.3715 H   0  0  0  0  0  0  0  0  0  0  0  0
   -1.2081    0.3932    4.4128 H   0  0  0  0  0  0  0  0  0  0  0  0
   -1.2805    0.7217    2.3453 O   0  0  0  0  0  0  0  0  0  0  0  0
   -2.6991    0.6974    2.1882 C   0  0  0  0  0  0  0  0  0  0  0  0
   -3.0241    1.7475    2.0161 H   0  0  0  0  0  0  0  0  0  0  0  0
   -3.1951    0.3704    3.1272 H   0  0  0  0  0  0  0  0  0  0  0  0
   -3.1607   -0.2157    1.0571 C   0  0  0  0  0  0  0  0  0  0  0  0
   -2.9483   -1.2688    1.3269 H   0  0  0  0  0  0  0  0  0  0  0  0
   -4.2679   -0.1092    0.9534 H   0  0  0  0  0  0  0  0  0  0  0  0
   -2.7806   -1.0373   -1.1968 C   0  0  0  0  0  0  0  0  0  0  0  0
   -2.5012   -2.0127   -0.7488 H   0  0  0  0  0  0  0  0  0  0  0  0
   -2.1218   -0.9403   -2.0833 H   0  0  0  0  0  0  0  0  0  0  0  0
   -4.1962   -1.0427   -1.5949 C   0  0  0  0  0  0  0  0  0  0  0  0
   -5.3331   -0.9725   -1.8701 N   0  0  0  0  0  0  0  0  0  0  0  0
   -0.3851    3.0306    0.3687 C   0  0  0  0  0  0  0  0  0  0  0  0
   -1.2143    2.7591    1.0482 H   0  0  0  0  0  0  0  0  0  0  0  0
    0.5210    3.0135    1.0057 H   0  0  0  0  0  0  0  0  0  0  0  0
   -0.5872    4.4022   -0.1326 C   0  0  0  0  0  0  0  0  0  0  0  0
   -0.7523    5.4699   -0.5849 N   0  0  0  0  0  0  0  0  0  0  0  0
    3.0279   -0.2739   -0.9676 C   0  0  0  0  0  0  0  0  0  0  0  0
    2.4686   -0.3679   -1.9244 H   0  0  0  0  0  0  0  0  0  0  0  0
    2.9681   -1.2848   -0.5167 H   0  0  0  0  0  0  0  0  0  0  0  0
    4.4329    0.0725   -1.2289 C   0  0  0  0  0  0  0  0  0  0  0  0
    5.5412    0.4179   -1.3885 N   0  0  0  0  0  0  0  0  0  0  0  0
  1 33  1  0  0  0  0
  2  1  1  0  0  0  0
  2  3  1  0  0  0  0
  4  2  1  0  0  0  0
  5  2  1  0  0  0  0
  5  8  1  0  0  0  0
  6  5  1  0  0  0  0
  7  5  1  0  0  0  0
  8 41  1  0  0  0  0
  9 12  1  0  0  0  0
  9  8  1  0  0  0  0
 10  9  1  0  0  0  0
 11  9  1  0  0  0  0
 12 15  1  0  0  0  0
 12 14  1  0  0  0  0
 13 12  1  0  0  0  0
 15 16  1  0  0  0  0
 16 17  1  0  0  0  0
 16 19  1  0  0  0  0
 18 16  1  0  0  0  0
 19 22  1  0  0  0  0
 19 21  1  0  0  0  0
 20 19  1  0  0  0  0
 22 23  1  0  0  0  0
 23 24  1  0  0  0  0
 23 25  1  0  0  0  0
 26 23  1  0  0  0  0
 26 28  1  0  0  0  0
 27 26  1  0  0  0  0
 29 26  1  0  0  0  0
 30 29  1  0  0  0  0
 30 32  1  0  0  0  0
 31 30  1  0  0  0  0
 33 34  1  0  0  0  0
 33 30  1  0  0  0  0
 35 33  1  0  0  0  0
 36 37  1  0  0  0  0
 36  1  1  0  0  0  0
 38 36  1  0  0  0  0
 39 36  1  0  0  0  0
 40 39  3  0  0  0  0
 41 43  1  0  0  0  0
 41 42  1  0  0  0  0
 44 41  1  0  0  0  0
 45 44  3  0  0  0  0
 46 48  1  0  0  0  0
 46 15  1  0  0  0  0
 47 46  1  0  0  0  0
 49 46  1  0  0  0  0
 50 49  3  0  0  0  0
M  END
