1,2
 OpenBabel05122313053D

 64 67  0  0  0  0  0  0  0  0999 V2000
   -1.3667   -0.8938    0.7973 N   0  0  0  0  0  2  0  0  0  0  0  0
    1.0475    0.5772   -0.5489 N   0  0  0  0  0  2  0  0  0  0  0  0
   -0.9824   -1.5630   -1.6888 O   0  0  0  0  0  0  0  0  0  0  0  0
    3.0083   -1.0976   -0.2280 O   0  0  0  0  0  0  0  0  0  0  0  0
   -0.6291   -1.8078   -3.0431 C   0  0  0  0  0  0  0  0  0  0  0  0
   -2.2983   -1.2431   -1.3939 C   0  0  0  0  0  0  0  0  0  0  0  0
   -3.3477   -1.2230   -2.3108 C   0  0  0  0  0  0  0  0  0  0  0  0
   -4.6307   -0.8315   -1.8767 C   0  0  0  0  0  0  0  0  0  0  0  0
   -4.8597   -0.4653   -0.5390 C   0  0  0  0  0  0  0  0  0  0  0  0
   -6.2230   -0.0190   -0.0697 C   0  0  0  0  0  0  0  0  0  0  0  0
   -3.7806   -0.5008    0.3682 C   0  0  0  0  0  0  0  0  0  0  0  0
   -2.4837   -0.8791   -0.0327 C   0  0  0  0  0  0  0  0  0  0  0  0
   -1.2928    0.1209    1.7930 C   0  0  0  0  0  0  0  0  0  0  0  0
   -1.3859   -0.1772    3.1667 C   0  0  0  0  0  0  0  0  0  0  0  0
   -1.1708    0.8281    4.1176 C   0  0  0  0  0  0  0  0  0  0  0  0
   -0.8275    2.1250    3.7054 C   0  0  0  0  0  0  0  0  0  0  0  0
   -0.7351    2.4543    2.3387 C   0  0  0  0  0  0  0  0  0  0  0  0
   -0.2741    3.8259    1.9095 C   0  0  0  0  0  0  0  0  0  0  0  0
   -1.0188    1.4562    1.3718 C   0  0  0  0  0  0  0  0  0  0  0  0
   -1.0730    1.7851   -0.0876 C   0  0  0  0  0  0  0  0  0  0  0  0
   -2.2081    2.4842   -0.5914 C   0  0  0  0  0  0  0  0  0  0  0  0
   -3.3261    2.9189    0.3244 C   0  0  0  0  0  0  0  0  0  0  0  0
   -2.2929    2.7680   -1.9661 C   0  0  0  0  0  0  0  0  0  0  0  0
   -1.2787    2.3704   -2.8488 C   0  0  0  0  0  0  0  0  0  0  0  0
   -0.1732    1.6686   -2.3633 C   0  0  0  0  0  0  0  0  0  0  0  0
   -0.0585    1.3581   -0.9882 C   0  0  0  0  0  0  0  0  0  0  0  0
    2.3254    1.0899   -0.7376 C   0  0  0  0  0  0  0  0  0  0  0  0
    2.6438    2.4294   -1.0564 C   0  0  0  0  0  0  0  0  0  0  0  0
    3.9779    2.8691   -1.1819 C   0  0  0  0  0  0  0  0  0  0  0  0
    4.2622    4.3130   -1.5194 C   0  0  0  0  0  0  0  0  0  0  0  0
    5.0221    1.9487   -0.9838 C   0  0  0  0  0  0  0  0  0  0  0  0
    4.7422    0.6058   -0.6608 C   0  0  0  0  0  0  0  0  0  0  0  0
    3.4156    0.1963   -0.5452 C   0  0  0  0  0  0  0  0  0  0  0  0
    3.9783   -1.9908    0.3266 C   0  0  0  0  0  0  0  0  0  0  0  0
   -1.1629   -2.6985   -3.4377 H   0  0  0  0  0  0  0  0  0  0  0  0
    0.4583   -2.0003   -3.0527 H   0  0  0  0  0  0  0  0  0  0  0  0
   -0.8602   -0.9205   -3.6694 H   0  0  0  0  0  0  0  0  0  0  0  0
   -3.1838   -1.4850   -3.3648 H   0  0  0  0  0  0  0  0  0  0  0  0
   -5.4595   -0.8079   -2.6005 H   0  0  0  0  0  0  0  0  0  0  0  0
   -6.2047    1.0410    0.2631 H   0  0  0  0  0  0  0  0  0  0  0  0
   -6.5736   -0.6188    0.7959 H   0  0  0  0  0  0  0  0  0  0  0  0
   -6.9808   -0.1065   -0.8724 H   0  0  0  0  0  0  0  0  0  0  0  0
   -3.9358   -0.2200    1.4213 H   0  0  0  0  0  0  0  0  0  0  0  0
   -1.6062   -1.2125    3.4646 H   0  0  0  0  0  0  0  0  0  0  0  0
   -1.2471    0.5953    5.1909 H   0  0  0  0  0  0  0  0  0  0  0  0
   -0.6131    2.9008    4.4570 H   0  0  0  0  0  0  0  0  0  0  0  0
   -0.1059    4.4855    2.7825 H   0  0  0  0  0  0  0  0  0  0  0  0
   -0.9983    4.3232    1.2336 H   0  0  0  0  0  0  0  0  0  0  0  0
    0.6776    3.7556    1.3420 H   0  0  0  0  0  0  0  0  0  0  0  0
   -3.5803    2.1303    1.0574 H   0  0  0  0  0  0  0  0  0  0  0  0
   -4.2366    3.1636   -0.2559 H   0  0  0  0  0  0  0  0  0  0  0  0
   -3.0522    3.8212    0.9118 H   0  0  0  0  0  0  0  0  0  0  0  0
   -3.1796    3.2968   -2.3481 H   0  0  0  0  0  0  0  0  0  0  0  0
   -1.3612    2.5950   -3.9235 H   0  0  0  0  0  0  0  0  0  0  0  0
    0.6283    1.3380   -3.0413 H   0  0  0  0  0  0  0  0  0  0  0  0
    1.8194    3.1435   -1.1990 H   0  0  0  0  0  0  0  0  0  0  0  0
    3.7980    5.0003   -0.7814 H   0  0  0  0  0  0  0  0  0  0  0  0
    3.8477    4.5856   -2.5128 H   0  0  0  0  0  0  0  0  0  0  0  0
    5.3495    4.5213   -1.5386 H   0  0  0  0  0  0  0  0  0  0  0  0
    6.0687    2.2758   -1.0744 H   0  0  0  0  0  0  0  0  0  0  0  0
    5.5665   -0.1034   -0.5056 H   0  0  0  0  0  0  0  0  0  0  0  0
    4.7377   -2.2626   -0.4355 H   0  0  0  0  0  0  0  0  0  0  0  0
    3.4184   -2.8866    0.6442 H   0  0  0  0  0  0  0  0  0  0  0  0
    4.4737   -1.5202    1.2003 H   0  0  0  0  0  0  0  0  0  0  0  0
  1 13  1  0  0  0  0
  3  6  1  0  0  0  0
  4 34  1  0  0  0  0
  5  3  1  0  0  0  0
  6 12  1  0  0  0  0
  7  8  1  0  0  0  0
  7  6  2  0  0  0  0
  8  9  2  0  0  0  0
  9 10  1  0  0  0  0
  9 11  1  0  0  0  0
 10 40  1  0  0  0  0
 10 41  1  0  0  0  0
 11 43  1  0  0  0  0
 12 11  2  0  0  0  0
 12  1  1  0  0  0  0
 13 14  1  0  0  0  0
 14 44  1  0  0  0  0
 14 15  2  0  0  0  0
 15 45  1  0  0  0  0
 16 15  1  0  0  0  0
 16 46  1  0  0  0  0
 17 16  2  0  0  0  0
 18 17  1  0  0  0  0
 18 47  1  0  0  0  0
 19 13  2  0  0  0  0
 19 17  1  0  0  0  0
 20 19  1  0  0  0  0
 21 20  1  0  0  0  0
 21 22  1  0  0  0  0
 22 52  1  0  0  0  0
 22 50  1  0  0  0  0
 23 21  2  0  0  0  0
 24 25  2  0  0  0  0
 24 23  1  0  0  0  0
 25 26  1  0  0  0  0
 26  2  1  0  0  0  0
 26 20  2  0  0  0  0
 27  2  1  0  0  0  0
 27 33  1  0  0  0  0
 28 27  2  0  0  0  0
 29 28  1  0  0  0  0
 29 31  2  0  0  0  0
 30 29  1  0  0  0  0
 30 57  1  0  0  0  0
 31 32  1  0  0  0  0
 32 33  2  0  0  0  0
 32 61  1  0  0  0  0
 33  4  1  0  0  0  0
 34 63  1  0  0  0  0
 34 64  1  0  0  0  0
 35  5  1  0  0  0  0
 36  5  1  0  0  0  0
 37  5  1  0  0  0  0
 38  7  1  0  0  0  0
 39  8  1  0  0  0  0
 42 10  1  0  0  0  0
 48 18  1  0  0  0  0
 49 18  1  0  0  0  0
 51 22  1  0  0  0  0
 53 23  1  0  0  0  0
 54 24  1  0  0  0  0
 55 25  1  0  0  0  0
 56 28  1  0  0  0  0
 58 30  1  0  0  0  0
 59 30  1  0  0  0  0
 60 31  1  0  0  0  0
 62 34  1  0  0  0  0
M  END
