3,4
 OpenBabel05122313053D

 43 46  0  0  0  0  0  0  0  0999 V2000
    0.7322   -2.6632    1.3462 S   0  0  0  0  0  0  0  0  0  0  0  0
    2.5589    1.6455    0.3829 S   0  0  0  0  0  0  0  0  0  0  0  0
   -1.4951   -0.7780    0.4977 N   0  0  0  0  0  2  0  0  0  0  0  0
   -0.4295    1.6490   -0.1716 N   0  0  0  0  0  2  0  0  0  0  0  0
   -0.9748   -3.1286    0.9020 C   0  0  0  0  0  0  0  0  0  0  0  0
   -0.8750   -3.5477   -0.1256 H   0  0  0  0  0  0  0  0  0  0  0  0
   -1.3426   -3.9239    1.5804 H   0  0  0  0  0  0  0  0  0  0  0  0
   -1.9569   -1.9810    0.8307 C   0  0  0  0  0  0  0  0  0  0  0  0
   -3.3441   -2.1935    1.0606 C   0  0  0  0  0  0  0  0  0  0  0  0
   -3.7030   -3.1965    1.3340 H   0  0  0  0  0  0  0  0  0  0  0  0
   -4.2279   -1.1316    0.9233 C   0  0  0  0  0  0  0  0  0  0  0  0
   -5.3067   -1.2750    1.0898 H   0  0  0  0  0  0  0  0  0  0  0  0
   -3.7415    0.1543    0.5664 C   0  0  0  0  0  0  0  0  0  0  0  0
   -2.3338    0.2712    0.3596 C   0  0  0  0  0  0  0  0  0  0  0  0
   -1.7669    1.5610    0.0084 C   0  0  0  0  0  0  0  0  0  0  0  0
   -2.6296    2.6928   -0.1109 C   0  0  0  0  0  0  0  0  0  0  0  0
   -4.0437    2.5357    0.0936 C   0  0  0  0  0  0  0  0  0  0  0  0
   -4.6914    3.4189   -0.0142 H   0  0  0  0  0  0  0  0  0  0  0  0
   -4.5803    1.3117    0.4181 C   0  0  0  0  0  0  0  0  0  0  0  0
   -5.6642    1.1997    0.5724 H   0  0  0  0  0  0  0  0  0  0  0  0
   -2.0137    3.9345   -0.4192 C   0  0  0  0  0  0  0  0  0  0  0  0
   -2.6364    4.8363   -0.5250 H   0  0  0  0  0  0  0  0  0  0  0  0
   -0.6355    4.0041   -0.5700 C   0  0  0  0  0  0  0  0  0  0  0  0
   -0.1382    4.9592   -0.7936 H   0  0  0  0  0  0  0  0  0  0  0  0
    0.1430    2.8214   -0.4409 C   0  0  0  0  0  0  0  0  0  0  0  0
    1.6447    2.8594   -0.6168 C   0  0  0  0  0  0  0  0  0  0  0  0
    2.0306    3.8835   -0.4397 H   0  0  0  0  0  0  0  0  0  0  0  0
    1.9144    2.5591   -1.6541 H   0  0  0  0  0  0  0  0  0  0  0  0
    2.1412    2.1973    2.0803 C   0  0  0  0  0  0  0  0  0  0  0  0
    2.5198    3.2306    2.2235 H   0  0  0  0  0  0  0  0  0  0  0  0
    1.0361    2.2208    2.1869 H   0  0  0  0  0  0  0  0  0  0  0  0
    2.7797    1.2453    3.0977 C   0  0  0  0  0  0  0  0  0  0  0  0
    2.5194    1.6150    4.1141 H   0  0  0  0  0  0  0  0  0  0  0  0
    3.8847    1.3182    3.0148 H   0  0  0  0  0  0  0  0  0  0  0  0
    2.3623   -0.2266    2.9617 C   0  0  0  0  0  0  0  0  0  0  0  0
    2.6902   -0.6169    1.9718 H   0  0  0  0  0  0  0  0  0  0  0  0
    2.9146   -0.8236    3.7192 H   0  0  0  0  0  0  0  0  0  0  0  0
    0.8594   -0.4650    3.1310 C   0  0  0  0  0  0  0  0  0  0  0  0
    0.5371   -0.0888    4.1286 H   0  0  0  0  0  0  0  0  0  0  0  0
    0.2869    0.1136    2.3750 H   0  0  0  0  0  0  0  0  0  0  0  0
    0.4547   -1.9346    3.0246 C   0  0  0  0  0  0  0  0  0  0  0  0
   -0.6184   -2.0696    3.2640 H   0  0  0  0  0  0  0  0  0  0  0  0
    1.0352   -2.5553    3.7388 H   0  0  0  0  0  0  0  0  0  0  0  0
  1 41  1  0  0  0  0
  2 29  1  0  0  0  0
  3  8  1  0  0  0  0
  4 15  1  0  0  0  0
  5  1  1  0  0  0  0
  5  7  1  0  0  0  0
  6  5  1  0  0  0  0
  8  5  1  0  0  0  0
  8  9  2  0  0  0  0
  9 10  1  0  0  0  0
 11  9  1  0  0  0  0
 11 12  1  0  0  0  0
 13 11  2  0  0  0  0
 14  3  1  0  0  0  0
 14 13  1  0  0  0  0
 15 14  2  0  0  0  0
 16 15  1  0  0  0  0
 16 17  1  0  0  0  0
 17 19  2  0  0  0  0
 18 17  1  0  0  0  0
 19 13  1  0  0  0  0
 19 20  1  0  0  0  0
 21 16  2  0  0  0  0
 22 21  1  0  0  0  0
 23 25  2  0  0  0  0
 23 21  1  0  0  0  0
 24 23  1  0  0  0  0
 25  4  1  0  0  0  0
 26 25  1  0  0  0  0
 26 27  1  0  0  0  0
 26  2  1  0  0  0  0
 28 26  1  0  0  0  0
 29 31  1  0  0  0  0
 29 30  1  0  0  0  0
 29 32  1  0  0  0  0
 32 33  1  0  0  0  0
 34 32  1  0  0  0  0
 35 32  1  0  0  0  0
 35 38  1  0  0  0  0
 35 37  1  0  0  0  0
 36 35  1  0  0  0  0
 38 39  1  0  0  0  0
 40 38  1  0  0  0  0
 41 38  1  0  0  0  0
 41 42  1  0  0  0  0
 41 43  1  0  0  0  0
M  END
