1,3
 OpenBabel05122313053D

 42 45  0  0  0  0  0  0  0  0999 V2000
    0.0415    0.3724   -0.1803 N   0  0  0  0  0  0  0  0  0  0  0  0
   -2.1681    0.6958    0.1111 N   0  0  0  0  0  0  0  0  0  0  0  0
   -2.2008   -0.6558    0.1856 N   0  0  0  0  0  1  0  0  0  0  0  0
   -3.5515    2.5664   -0.3304 N   0  0  0  0  0  0  0  0  0  0  0  0
    2.3722    0.3331   -0.4577 N   0  0  0  0  0  2  0  0  0  0  0  0
    4.0595    1.4204    0.7666 N   0  0  0  0  0  0  0  0  0  0  0  0
   -0.9542    1.3052   -0.0670 C   0  0  0  0  0  0  0  0  0  0  0  0
   -0.3874    2.6514   -0.0572 C   0  0  0  0  0  0  0  0  0  0  0  0
    1.0288    2.4733   -0.1699 C   0  0  0  0  0  3  0  0  0  0  0  0
    1.2941    1.0175   -0.2649 C   0  0  0  0  0  0  0  0  0  0  0  0
   -0.9132    3.9528    0.0334 C   0  0  0  0  0  0  0  0  0  0  0  0
   -1.9973    4.0930    0.0945 H   0  0  0  0  0  0  0  0  0  0  0  0
   -0.0310    5.0445    0.0059 C   0  0  0  0  0  0  0  0  0  0  0  0
   -0.4414    6.0635    0.0794 H   0  0  0  0  0  0  0  0  0  0  0  0
    1.3579    4.8649   -0.1254 C   0  0  0  0  0  0  0  0  0  0  0  0
    2.0264    5.7382   -0.1530 H   0  0  0  0  0  0  0  0  0  0  0  0
    1.8971    3.5705   -0.2153 C   0  0  0  0  0  0  0  0  0  0  0  0
    2.9804    3.4230   -0.3041 H   0  0  0  0  0  0  0  0  0  0  0  0
   -3.4427    1.3490    0.1961 C   0  0  0  0  0  0  0  0  0  0  0  0
   -4.5151    0.6486    0.7860 C   0  0  0  0  0  0  0  0  0  0  0  0
   -4.3407   -0.3580    1.1840 H   0  0  0  0  0  0  0  0  0  0  0  0
   -5.7562    1.2880    0.8045 C   0  0  0  0  0  0  0  0  0  0  0  0
   -6.6270    0.7864    1.2535 H   0  0  0  0  0  0  0  0  0  0  0  0
   -5.8860    2.5710    0.2480 C   0  0  0  0  0  0  0  0  0  0  0  0
   -6.8550    3.0913    0.2437 H   0  0  0  0  0  0  0  0  0  0  0  0
   -4.7492    3.1877   -0.3071 C   0  0  0  0  0  0  0  0  0  0  0  0
   -4.7974    4.5723   -0.8989 C   0  0  0  0  0  0  0  0  0  0  0  0
   -4.2562    5.2914   -0.2475 H   0  0  0  0  0  0  0  0  0  0  0  0
   -5.8354    4.9351   -1.0195 H   0  0  0  0  0  0  0  0  0  0  0  0
   -4.2884    4.5875   -1.8826 H   0  0  0  0  0  0  0  0  0  0  0  0
    3.6569    0.8565   -0.3905 C   0  0  0  0  0  0  0  0  0  0  0  0
    4.5282    0.6859   -1.4973 C   0  0  0  0  0  0  0  0  0  0  0  0
    4.1567    0.2074   -2.4143 H   0  0  0  0  0  0  0  0  0  0  0  0
    5.8373    1.1560   -1.3828 C   0  0  0  0  0  0  0  0  0  0  0  0
    6.5368    1.0568   -2.2273 H   0  0  0  0  0  0  0  0  0  0  0  0
    6.2563    1.7469   -0.1792 C   0  0  0  0  0  0  0  0  0  0  0  0
    7.2851    2.1158   -0.0568 H   0  0  0  0  0  0  0  0  0  0  0  0
    5.3311    1.8503    0.8792 C   0  0  0  0  0  0  0  0  0  0  0  0
    5.7084    2.4543    2.2082 C   0  0  0  0  0  0  0  0  0  0  0  0
    6.7449    2.8412    2.2130 H   0  0  0  0  0  0  0  0  0  0  0  0
    5.6066    1.6978    3.0134 H   0  0  0  0  0  0  0  0  0  0  0  0
    5.0123    3.2787    2.4639 H   0  0  0  0  0  0  0  0  0  0  0  0
  1  7  1  0  0  0  0
  2  3  1  0  0  0  0
  2 19  1  0  0  0  0
  4 26  2  0  0  0  0
  4 19  1  0  0  0  0
  5 31  1  0  0  0  0
  5 10  1  0  0  0  0
  6 38  1  0  0  0  0
  7  8  2  0  0  0  0
  7  2  1  0  0  0  0
  8 11  1  0  0  0  0
  9  8  1  0  0  0  0
 10  1  2  0  0  0  0
 10  9  1  0  0  0  0
 11 12  1  0  0  0  0
 13 11  2  0  0  0  0
 13 14  1  0  0  0  0
 15 13  1  0  0  0  0
 16 15  1  0  0  0  0
 17  9  1  0  0  0  0
 17 15  2  0  0  0  0
 18 17  1  0  0  0  0
 19 20  2  0  0  0  0
 20 22  1  0  0  0  0
 20 21  1  0  0  0  0
 22 23  1  0  0  0  0
 24 22  2  0  0  0  0
 25 24  1  0  0  0  0
 26 24  1  0  0  0  0
 27 26  1  0  0  0  0
 27 28  1  0  0  0  0
 29 27  1  0  0  0  0
 30 27  1  0  0  0  0
 31  6  2  0  0  0  0
 32 34  2  0  0  0  0
 32 31  1  0  0  0  0
 33 32  1  0  0  0  0
 34 36  1  0  0  0  0
 35 34  1  0  0  0  0
 36 37  1  0  0  0  0
 36 38  2  0  0  0  0
 38 39  1  0  0  0  0
 39 40  1  0  0  0  0
 39 42  1  0  0  0  0
 39 41  1  0  0  0  0
M  END
