6,8
 OpenBabel05122313053D

 22 23  0  0  1  0  0  0  0  0999 V2000
   -1.3282   -2.9255   -0.0056 N   0  0  0  0  0  0  0  0  0  0  0  0
   -1.9913   -3.6990   -0.0046 H   0  0  0  0  0  0  0  0  0  0  0  0
   -0.2892   -3.0726   -0.0037 H   0  0  0  0  0  0  0  0  0  0  0  0
   -0.2124    4.1375   -0.0004 C   0  0  0  0  0  0  0  0  0  0  0  0
   -0.5542    5.1830   -0.0002 H   0  0  0  0  0  0  0  0  0  0  0  0
   -0.9673   -0.6142   -0.0014 N   0  0  0  0  0  2  0  0  0  0  0  0
   -0.6632    1.7672   -0.0002 C   0  0  0  0  0  0  0  0  0  0  0  0
    0.6673    1.4789   -0.0009 N   0  0  0  0  0  2  0  0  0  0  0  0
   -3.1762   -1.5506   -0.0007 N   0  0  0  0  0  0  0  0  0  0  0  0
   -1.8356   -1.6952   -0.0025 C   0  0  1  0  0  3  0  0  0  0  0  0
   -4.9872   -0.1188    0.0034 N   0  0  0  0  0  0  0  0  0  0  0  0
   -5.5996   -0.9313    0.0037 H   0  0  0  0  0  0  0  0  0  0  0  0
   -5.3645    0.8257    0.0050 H   0  0  0  0  0  0  0  0  0  0  0  0
   -3.6463   -0.2975    0.0012 C   0  0  0  0  0  0  0  0  0  0  0  0
   -1.1362    3.0868    0.0002 C   0  0  0  0  0  0  0  0  0  0  0  0
   -2.2239    3.2395    0.0009 H   0  0  0  0  0  0  0  0  0  0  0  0
    1.1568    3.8284   -0.0013 C   0  0  0  0  0  0  0  0  0  0  0  0
    1.9218    4.6180   -0.0019 H   0  0  0  0  0  0  0  0  0  0  0  0
   -1.5717    0.6041   -0.0001 C   0  0  0  0  0  0  0  0  0  0  0  0
   -2.8809    0.8286    0.0011 N   0  0  0  0  0  2  0  0  0  0  0  0
    1.5634    2.4894   -0.0015 C   0  0  0  0  0  0  0  0  0  0  0  0
    2.6186    2.1652   -0.0018 H   0  0  0  0  0  0  0  0  0  0  0  0
  1  2  1  0  0  0  0
  1  3  1  0  0  0  0
  4  5  1  0  0  0  0
  4 15  2  0  0  0  0
  6 19  1  0  0  0  0
  7 19  2  0  0  0  0
  7 15  1  0  0  0  0
  8  7  1  0  0  0  0
  9 14  2  0  0  0  0
 10  1  1  6  0  0  0
 10  6  1  0  0  0  0
 10  9  1  0  0  0  0
 11 12  1  0  0  0  0
 11 13  1  0  0  0  0
 14 11  1  0  0  0  0
 15 16  1  0  0  0  0
 17  4  1  0  0  0  0
 18 17  1  0  0  0  0
 19 20  1  0  0  0  0
 20 14  1  0  0  0  0
 21 17  2  0  0  0  0
 21  8  1  0  0  0  0
 22 21  1  0  0  0  0
M  END
