5,8
 OpenBabel05122313053D

 31 32  0  0  0  0  0  0  0  0999 V2000
    4.3445   -3.0667    0.8772 O   0  0  0  0  0  0  0  0  0  0  0  0
    6.2995    0.8050   -0.6348 O   0  0  0  0  0  0  0  0  0  0  0  0
    5.3208   -1.1020    0.1664 N   0  0  0  0  0  0  0  0  0  0  0  0
    3.9984    0.6890   -0.6952 N   0  0  0  0  0  0  0  0  0  0  0  0
    1.6473    0.5796   -0.6493 N   0  0  0  0  0  2  0  0  0  0  0  0
    1.6985    1.5331   -1.0223 H   0  0  0  0  0  0  0  0  0  0  0  0
    1.8597   -2.1728    0.0775 N   0  0  0  0  0  2  0  0  0  0  0  0
    0.6449   -1.7893   -0.1162 N   0  0  0  0  0  2  0  0  0  0  0  0
   -2.0748   -4.9886   -0.7360 C   0  0  0  0  0  0  0  0  0  0  0  0
   -2.7877   -5.8111   -0.8958 H   0  0  0  0  0  0  0  0  0  0  0  0
   -2.1529   -3.8239   -1.5191 C   0  0  0  0  0  0  0  0  0  0  0  0
   -2.9215   -3.7341   -2.3016 H   0  0  0  0  0  0  0  0  0  0  0  0
   -1.2514   -2.7712   -1.3114 C   0  0  0  0  0  0  0  0  0  0  0  0
   -1.3022   -1.8533   -1.9147 H   0  0  0  0  0  0  0  0  0  0  0  0
   -0.2566   -2.8839   -0.3197 C   0  0  0  0  0  0  0  0  0  0  0  0
   -0.1590   -4.0597    0.4515 C   0  0  0  0  0  0  0  0  0  0  0  0
    0.6481   -4.1357    1.1939 H   0  0  0  0  0  0  0  0  0  0  0  0
   -1.0737   -5.1011    0.2447 C   0  0  0  0  0  0  0  0  0  0  0  0
   -1.0016   -6.0137    0.8557 H   0  0  0  0  0  0  0  0  0  0  0  0
    2.8169    0.0174   -0.4142 C   0  0  0  0  0  0  0  0  0  0  0  0
    5.2811    0.1642   -0.4039 C   0  0  0  0  0  0  0  0  0  0  0  0
    4.1985   -1.9436    0.4131 C   0  0  0  0  0  0  0  0  0  0  0  0
    2.9021   -1.3365    0.0761 C   0  0  0  0  0  0  0  0  0  0  0  0
    3.9499    2.0164   -1.3015 C   0  0  0  0  0  0  0  0  0  0  0  0
    3.4207    2.7368   -0.6443 H   0  0  0  0  0  0  0  0  0  0  0  0
    4.9937    2.3469   -1.4371 H   0  0  0  0  0  0  0  0  0  0  0  0
    3.4460    1.9758   -2.2896 H   0  0  0  0  0  0  0  0  0  0  0  0
    6.6509   -1.6153    0.4867 C   0  0  0  0  0  0  0  0  0  0  0  0
    7.1629   -0.9377    1.1967 H   0  0  0  0  0  0  0  0  0  0  0  0
    6.5086   -2.6153    0.9313 H   0  0  0  0  0  0  0  0  0  0  0  0
    7.2699   -1.6829   -0.4288 H   0  0  0  0  0  0  0  0  0  0  0  0
  2 21  2  0  0  0  0
  3 22  1  0  0  0  0
  3 28  1  0  0  0  0
  4 20  1  0  0  0  0
  4 21  1  0  0  0  0
  5 20  1  0  0  0  0
  6  5  1  0  0  0  0
  8  7  1  0  0  0  0
  9 18  1  0  0  0  0
 10  9  1  0  0  0  0
 11 13  1  0  0  0  0
 11  9  2  0  0  0  0
 12 11  1  0  0  0  0
 13 15  2  0  0  0  0
 14 13  1  0  0  0  0
 15  8  1  0  0  0  0
 15 16  1  0  0  0  0
 16 17  1  0  0  0  0
 18 16  2  0  0  0  0
 18 19  1  0  0  0  0
 20 23  2  0  0  0  0
 21  3  1  0  0  0  0
 22  1  2  0  0  0  0
 23  7  1  0  0  0  0
 23 22  1  0  0  0  0
 24  4  1  0  0  0  0
 24 25  1  0  0  0  0
 26 24  1  0  0  0  0
 27 24  1  0  0  0  0
 28 30  1  0  0  0  0
 28 29  1  0  0  0  0
 31 28  1  0  0  0  0
M  END
