2,4
 OpenBabel05122313053D

 29 28  0  0  1  0  0  0  0  0999 V2000
   -0.8276   -2.5194   -0.7740 O   0  0  0  0  0  0  0  0  0  0  0  0
   -1.0739   -1.3781   -0.1877 N   0  0  0  0  0  2  0  0  0  0  0  0
   -2.2421   -1.1442    0.3653 C   0  0  2  0  0  3  0  0  0  0  0  0
   -1.4097    1.1253    0.1953 N   0  0  0  0  0  0  0  0  0  0  0  0
   -1.1841    1.9154    0.8203 H   0  0  0  0  0  0  0  0  0  0  0  0
   -2.3662    0.2387    0.9826 C   0  0  0  0  0  0  0  0  0  0  0  0
   -3.3161   -2.1756    0.4224 C   0  0  0  0  0  0  0  0  0  0  0  0
   -2.8868   -3.1744    0.2257 H   0  0  0  0  0  0  0  0  0  0  0  0
   -4.0992   -1.9878   -0.3446 H   0  0  0  0  0  0  0  0  0  0  0  0
   -3.8232   -2.1766    1.4079 H   0  0  0  0  0  0  0  0  0  0  0  0
   -3.8089    0.7641    0.9758 C   0  0  0  0  0  0  0  0  0  0  0  0
   -4.2794    0.7253   -0.0242 H   0  0  0  0  0  0  0  0  0  0  0  0
   -3.8461    1.8079    1.3468 H   0  0  0  0  0  0  0  0  0  0  0  0
   -4.4308    0.1560    1.6592 H   0  0  0  0  0  0  0  0  0  0  0  0
   -1.8399    0.2101    2.4330 C   0  0  0  0  0  0  0  0  0  0  0  0
   -2.4037   -0.5305    3.0313 H   0  0  0  0  0  0  0  0  0  0  0  0
   -1.9580    1.1995    2.9230 H   0  0  0  0  0  0  0  0  0  0  0  0
   -0.7705   -0.0835    2.4511 H   0  0  0  0  0  0  0  0  0  0  0  0
   -1.9334    1.7527   -1.0741 C   0  0  0  0  0  0  0  0  0  0  0  0
   -2.8589    2.3036   -0.7995 H   0  0  0  0  0  0  0  0  0  0  0  0
   -0.9226    2.7812   -1.5820 C   0  0  0  0  0  0  0  0  0  0  0  0
   -0.5966    3.4822   -0.7848 H   0  0  0  0  0  0  0  0  0  0  0  0
   -1.3823    3.3932   -2.3816 H   0  0  0  0  0  0  0  0  0  0  0  0
   -0.0326    2.2878   -2.0231 H   0  0  0  0  0  0  0  0  0  0  0  0
   -2.2780    0.7322   -2.1559 C   0  0  0  0  0  0  0  0  0  0  0  0
   -1.3911    0.1347   -2.4483 H   0  0  0  0  0  0  0  0  0  0  0  0
   -2.6449    1.2686   -3.0526 H   0  0  0  0  0  0  0  0  0  0  0  0
   -3.0681    0.0240   -1.8440 H   0  0  0  0  0  0  0  0  0  0  0  0
    0.3547   -2.4944   -0.9839 H   0  0  0  0  0  0  0  0  0  0  0  0
  1  2  1  0  0  0  0
  3  2  1  1  0  0  0
  3  7  1  0  0  0  0
  3  6  1  0  0  0  0
  4  5  1  0  0  0  0
  4  6  1  0  0  0  0
  6 15  1  0  0  0  0
  7 10  1  0  0  0  0
  8  7  1  0  0  0  0
  9  7  1  0  0  0  0
 11  6  1  0  0  0  0
 11 13  1  0  0  0  0
 11 14  1  0  0  0  0
 12 11  1  0  0  0  0
 15 18  1  0  0  0  0
 15 17  1  0  0  0  0
 15 16  1  0  0  0  0
 19 20  1  0  0  0  0
 19  4  1  0  0  0  0
 21 19  1  0  0  0  0
 21 22  1  0  0  0  0
 23 21  1  0  0  0  0
 24 21  1  0  0  0  0
 25 28  1  0  0  0  0
 25 19  1  0  0  0  0
 26 25  1  0  0  0  0
 27 25  1  0  0  0  0
 29  1  1  0  0  0  0
M  END
