1,22
 OpenBabel05122313053D

 22 23  0  0  0  0  0  0  0  0999 V2000
    1.0193    0.9261   -0.0087 N   0  0  0  0  0  2  0  0  0  0  0  0
    2.3353    1.2943   -0.0254 C   0  0  0  0  0  0  0  0  0  0  0  0
    3.2673    0.3180   -0.0676 N   0  0  0  0  0  0  0  0  0  0  0  0
    2.9712   -0.6637   -0.0519 H   0  0  0  0  0  0  0  0  0  0  0  0
    4.2544    0.5553   -0.0473 H   0  0  0  0  0  0  0  0  0  0  0  0
    2.7241    2.6647   -0.0055 C   0  0  0  0  0  0  0  0  0  0  0  0
    3.7940    2.9187   -0.0141 H   0  0  0  0  0  0  0  0  0  0  0  0
    1.7475    3.6500    0.0223 C   0  0  0  0  0  0  0  0  0  0  0  0
    2.0305    4.7128    0.0382 H   0  0  0  0  0  0  0  0  0  0  0  0
    0.3950    3.2748    0.0269 C   0  0  0  0  0  0  0  0  0  0  0  0
   -0.3897    4.0396    0.0429 H   0  0  0  0  0  0  0  0  0  0  0  0
    0.0687    1.9096    0.0098 C   0  0  0  0  0  0  0  0  0  0  0  0
   -1.3365    1.4519    0.0051 C   0  0  0  0  0  0  0  0  0  0  0  0
   -2.4332    2.3372    0.0194 C   0  0  0  0  0  0  0  0  0  0  0  0
   -2.2627    3.4209    0.0416 H   0  0  0  0  0  0  0  0  0  0  0  0
   -3.7378    1.8389    0.0048 C   0  0  0  0  0  0  0  0  0  0  0  0
   -4.5971    2.5251    0.0156 H   0  0  0  0  0  0  0  0  0  0  0  0
   -3.9210    0.4474   -0.0247 C   0  0  0  0  0  0  0  0  0  0  0  0
   -4.9241   -0.0019   -0.0388 H   0  0  0  0  0  0  0  0  0  0  0  0
   -2.7963   -0.3782   -0.0352 C   0  0  0  0  0  0  0  0  0  0  0  0
   -2.8893   -1.4731   -0.0553 H   0  0  0  0  0  0  0  0  0  0  0  0
   -1.5293    0.0984   -0.0194 N   0  0  0  0  0  2  0  0  0  0  0  0
  1 12  1  0  0  0  0
  2  1  1  0  0  0  0
  2  6  2  0  0  0  0
  3  4  1  0  0  0  0
  3  5  1  0  0  0  0
  3  2  1  0  0  0  0
  6  8  1  0  0  0  0
  7  6  1  0  0  0  0
  8 10  2  0  0  0  0
  8  9  1  0  0  0  0
 10 11  1  0  0  0  0
 12 10  1  0  0  0  0
 13 12  2  0  0  0  0
 13 14  1  0  0  0  0
 14 15  1  0  0  0  0
 16 17  1  0  0  0  0
 16 14  2  0  0  0  0
 18 16  1  0  0  0  0
 19 18  1  0  0  0  0
 20 18  2  0  0  0  0
 20 22  1  0  0  0  0
 21 20  1  0  0  0  0
 22 13  1  0  0  0  0
M  END
