2,3
 OpenBabel05122313053D

 30 29  0  0  1  0  0  0  0  0999 V2000
    0.5557   -1.0021    3.0708 O   0  0  0  0  0  1  0  0  0  0  0  0
    0.9664   -0.9370    1.8543 N   0  0  0  0  0  2  0  0  0  0  0  0
    1.4182   -0.3214   -0.4949 N   0  0  0  0  0  2  0  0  0  0  0  0
    1.9585   -1.6734    1.3928 C   0  0  1  0  0  3  0  0  0  0  0  0
    2.3604   -1.3375   -0.0235 C   0  0  0  0  0  0  0  0  0  0  0  0
    2.6504   -2.6559    2.2727 C   0  0  0  0  0  0  0  0  0  0  0  0
    3.2977   -2.1325    3.0097 H   0  0  0  0  0  0  0  0  0  0  0  0
    3.2811   -3.3541    1.6927 H   0  0  0  0  0  0  0  0  0  0  0  0
    1.9082   -3.2289    2.8634 H   0  0  0  0  0  0  0  0  0  0  0  0
    3.8273   -0.8408   -0.0167 C   0  0  0  0  0  0  0  0  0  0  0  0
    4.1724   -0.5909   -1.0379 H   0  0  0  0  0  0  0  0  0  0  0  0
    4.4885   -1.6392    0.3700 H   0  0  0  0  0  0  0  0  0  0  0  0
    3.9383    0.0479    0.6329 H   0  0  0  0  0  0  0  0  0  0  0  0
    2.2197   -2.5803   -0.9490 C   0  0  0  0  0  0  0  0  0  0  0  0
    1.1755   -2.9477   -0.9494 H   0  0  0  0  0  0  0  0  0  0  0  0
    2.8861   -3.3926   -0.5999 H   0  0  0  0  0  0  0  0  0  0  0  0
    2.5110   -2.3184   -1.9846 H   0  0  0  0  0  0  0  0  0  0  0  0
    1.7376    0.5402   -1.6067 C   0  0  0  0  0  0  0  0  0  0  0  0
    0.8202    0.6626   -2.2240 H   0  0  0  0  0  0  0  0  0  0  0  0
    2.5135    0.0754   -2.2533 H   0  0  0  0  0  0  0  0  0  0  0  0
    2.1909    1.9557   -1.1811 C   0  0  0  0  0  0  0  0  0  0  0  0
    3.1154    1.8841   -0.5712 H   0  0  0  0  0  0  0  0  0  0  0  0
    1.4083    2.3773   -0.5119 H   0  0  0  0  0  0  0  0  0  0  0  0
    2.4163    2.8805   -2.3796 C   0  0  0  0  0  0  0  0  0  0  0  0
    3.1859    2.4356   -3.0479 H   0  0  0  0  0  0  0  0  0  0  0  0
    1.4835    2.9292   -2.9846 H   0  0  0  0  0  0  0  0  0  0  0  0
    2.8419    4.2892   -1.9644 C   0  0  0  0  0  0  0  0  0  0  0  0
    2.0751    4.7719   -1.3238 H   0  0  0  0  0  0  0  0  0  0  0  0
    2.9964    4.9386   -2.8483 H   0  0  0  0  0  0  0  0  0  0  0  0
    3.7916    4.2732   -1.3916 H   0  0  0  0  0  0  0  0  0  0  0  0
  2  1  1  0  0  0  0
  3  5  1  0  0  0  0
  4  2  1  1  0  0  0
  4  6  1  0  0  0  0
  5 10  1  0  0  0  0
  5  4  1  0  0  0  0
  6  9  1  0  0  0  0
  6  7  1  0  0  0  0
  8  6  1  0  0  0  0
 10 12  1  0  0  0  0
 10 13  1  0  0  0  0
 11 10  1  0  0  0  0
 14 16  1  0  0  0  0
 14  5  1  0  0  0  0
 15 14  1  0  0  0  0
 17 14  1  0  0  0  0
 18 21  1  0  0  0  0
 18  3  1  0  0  0  0
 19 18  1  0  0  0  0
 20 18  1  0  0  0  0
 21 22  1  0  0  0  0
 21 23  1  0  0  0  0
 24 27  1  0  0  0  0
 24 21  1  0  0  0  0
 25 24  1  0  0  0  0
 26 24  1  0  0  0  0
 27 30  1  0  0  0  0
 27 28  1  0  0  0  0
 29 27  1  0  0  0  0
M  END
