1,2
 OpenBabel05122313053D

 36 38  0  0  0  0  0  0  0  0999 V2000
    1.2935   -1.2961    0.1824 N   0  0  0  0  0  2  0  0  0  0  0  0
    1.3025    1.2876   -0.1829 N   0  0  0  0  0  2  0  0  0  0  0  0
    0.0696   -3.1294    1.1982 C   0  0  0  0  0  0  0  0  0  0  0  0
   -0.4219   -2.3935    1.8525 H   0  0  0  0  0  0  0  0  0  0  0  0
   -0.2764   -4.4855    1.2616 C   0  0  0  0  0  0  0  0  0  0  0  0
   -1.0361   -4.8169    1.9858 H   0  0  0  0  0  0  0  0  0  0  0  0
    0.3325   -5.4152    0.4034 C   0  0  0  0  0  0  0  0  0  0  0  0
    0.0552   -6.4787    0.4499 H   0  0  0  0  0  0  0  0  0  0  0  0
    1.2891   -4.9723   -0.5252 C   0  0  0  0  0  0  0  0  0  0  0  0
    1.7581   -5.6887   -1.2170 H   0  0  0  0  0  0  0  0  0  0  0  0
    1.6438   -3.6187   -0.5927 C   0  0  0  0  0  0  0  0  0  0  0  0
    2.3737   -3.2714   -1.3387 H   0  0  0  0  0  0  0  0  0  0  0  0
    1.0428   -2.6782    0.2782 C   0  0  0  0  0  0  0  0  0  0  0  0
    2.5213   -0.7420    0.1479 C   0  0  0  0  0  0  0  0  0  0  0  0
    3.6830   -1.4928    0.4797 C   0  0  0  0  0  3  0  0  0  0  0  0
    3.4520   -2.5085    0.8369 H   0  0  0  0  0  0  0  0  0  0  0  0
    5.0460   -1.1845    0.4424 C   0  0  0  0  0  0  0  0  0  0  0  0
    5.7078   -1.9948    0.7916 H   0  0  0  0  0  0  0  0  0  0  0  0
    5.6888   -0.0194    0.0005 C   0  0  0  0  0  0  0  0  0  0  0  0
    6.7897   -0.0232    0.0006 H   0  0  0  0  0  0  0  0  0  0  0  0
    5.0542    1.1501   -0.4417 C   0  0  0  0  0  0  0  0  0  0  0  0
    5.7216    1.9559   -0.7906 H   0  0  0  0  0  0  0  0  0  0  0  0
    3.6933    1.4678   -0.4793 C   0  0  0  0  0  0  0  0  0  0  0  0
    3.4694    2.4851   -0.8366 H   0  0  0  0  0  0  0  0  0  0  0  0
    2.5264    0.7250   -0.1480 C   0  0  0  0  0  0  0  0  0  0  0  0
    1.0613    2.6713   -0.2785 C   0  0  0  0  0  0  0  0  0  0  0  0
    1.6686    3.6075    0.5926 C   0  0  0  0  0  0  0  0  0  0  0  0
    2.3959    3.2551    1.3388 H   0  0  0  0  0  0  0  0  0  0  0  0
    1.3233    4.9636    0.5252 C   0  0  0  0  0  0  0  0  0  0  0  0
    1.7972    5.6766    1.2173 H   0  0  0  0  0  0  0  0  0  0  0  0
    0.3701    5.4133   -0.4035 C   0  0  0  0  0  0  0  0  0  0  0  0
    0.1001    6.4787   -0.4499 H   0  0  0  0  0  0  0  0  0  0  0  0
   -0.2451    4.4880   -1.2620 C   0  0  0  0  0  0  0  0  0  0  0  0
   -1.0023    4.8247   -1.9863 H   0  0  0  0  0  0  0  0  0  0  0  0
    0.0915    3.1294   -1.1986 C   0  0  0  0  0  0  0  0  0  0  0  0
   -0.4050    2.3970   -1.8532 H   0  0  0  0  0  0  0  0  0  0  0  0
  1 13  1  0  0  0  0
  2 25  1  0  0  0  0
  3  5  1  0  0  0  0
  3  4  1  0  0  0  0
  5  6  1  0  0  0  0
  7  8  1  0  0  0  0
  7  5  2  0  0  0  0
  9  7  1  0  0  0  0
 10  9  1  0  0  0  0
 11  9  2  0  0  0  0
 11 13  1  0  0  0  0
 12 11  1  0  0  0  0
 13  3  2  0  0  0  0
 14  1  1  0  0  0  0
 14 15  1  0  0  0  0
 15 16  1  0  0  0  0
 17 15  1  0  0  0  0
 17 18  1  0  0  0  0
 19 20  1  0  0  0  0
 19 17  2  0  0  0  0
 21 19  1  0  0  0  0
 22 21  1  0  0  0  0
 23 21  2  0  0  0  0
 23 25  1  0  0  0  0
 24 23  1  0  0  0  0
 25 14  2  0  0  0  0
 26  2  1  0  0  0  0
 26 27  1  0  0  0  0
 27 28  1  0  0  0  0
 29 27  2  0  0  0  0
 29 30  1  0  0  0  0
 31 29  1  0  0  0  0
 32 31  1  0  0  0  0
 33 35  1  0  0  0  0
 33 31  2  0  0  0  0
 34 33  1  0  0  0  0
 35 26  2  0  0  0  0
 36 35  1  0  0  0  0
M  END
