1,2
 OpenBabel05122313053D

 48 50  0  0  1  0  0  0  0  0999 V2000
    0.7640    1.8216   -0.2629 N   0  0  0  0  0  2  0  0  0  0  0  0
   -1.4205    0.4705    0.1967 N   0  0  0  0  0  2  0  0  0  0  0  0
    2.8844    1.7578   -1.4372 C   0  0  0  0  0  0  0  0  0  0  0  0
    2.4528    0.9916   -2.0990 H   0  0  0  0  0  0  0  0  0  0  0  0
    4.2214    2.1518   -1.5765 C   0  0  0  0  0  0  0  0  0  0  0  0
    4.8394    1.7000   -2.3673 H   0  0  0  0  0  0  0  0  0  0  0  0
    4.7740    3.1085   -0.7097 C   0  0  0  0  0  0  0  0  0  0  0  0
    5.8260    3.4122   -0.8156 H   0  0  0  0  0  0  0  0  0  0  0  0
    3.9748    3.6634    0.3035 C   0  0  0  0  0  0  0  0  0  0  0  0
    4.4030    4.3983    1.0023 H   0  0  0  0  0  0  0  0  0  0  0  0
    2.6357    3.2773    0.4477 C   0  0  0  0  0  0  0  0  0  0  0  0
    2.0229    3.6912    1.2618 H   0  0  0  0  0  0  0  0  0  0  0  0
    2.0689    2.3221   -0.4301 C   0  0  0  0  0  0  0  0  0  0  0  0
   -0.3361    2.5819   -0.0920 C   0  0  0  0  0  0  0  0  0  0  0  0
   -0.3165    3.9839   -0.3268 C   0  0  0  0  0  0  0  0  0  0  0  0
    0.6454    4.3426   -0.7251 H   0  0  0  0  0  0  0  0  0  0  0  0
   -1.2812    4.9806   -0.1502 C   0  0  0  0  0  0  0  0  0  0  0  0
   -0.9522    5.9912   -0.4450 H   0  0  0  0  0  0  0  0  0  0  0  0
   -2.5823    4.8904    0.3649 C   0  0  0  0  0  0  0  0  0  0  0  0
   -3.1470    5.8300    0.4662 H   0  0  0  0  0  0  0  0  0  0  0  0
   -3.2315    3.7104    0.7556 C   0  0  0  0  0  0  0  0  0  0  0  0
   -4.2496    3.8342    1.1613 H   0  0  0  0  0  0  0  0  0  0  0  0
   -2.7935    2.3855    0.6806 C   0  0  0  0  0  0  0  0  0  0  0  0
   -3.5226    1.6316    1.0201 H   0  0  0  0  0  0  0  0  0  0  0  0
   -1.5678    1.8064    0.2475 C   0  0  2  0  0  3  0  0  0  0  0  0
   -2.4949   -0.4373    0.3555 C   0  0  0  0  0  0  0  0  0  0  0  0
   -2.4817   -1.3264    1.4647 C   0  0  0  0  0  0  0  0  0  0  0  0
   -3.5133   -2.2768    1.5757 C   0  0  0  0  0  0  0  0  0  0  0  0
   -3.5101   -2.9633    2.4370 H   0  0  0  0  0  0  0  0  0  0  0  0
   -4.5204   -2.3681    0.6075 C   0  0  0  0  0  0  0  0  0  0  0  0
   -5.3164   -3.1214    0.7066 H   0  0  0  0  0  0  0  0  0  0  0  0
   -4.4992   -1.5125   -0.5023 C   0  0  0  0  0  0  0  0  0  0  0  0
   -5.2754   -1.6127   -1.2744 H   0  0  0  0  0  0  0  0  0  0  0  0
   -3.4949   -0.5395   -0.6564 C   0  0  0  0  0  0  0  0  0  0  0  0
   -1.3779   -1.2695    2.4975 C   0  0  0  0  0  0  0  0  0  0  0  0
   -1.4180   -2.1988    3.1027 H   0  0  0  0  0  0  0  0  0  0  0  0
   -0.3961   -1.3054    1.9718 H   0  0  0  0  0  0  0  0  0  0  0  0
   -1.4264   -0.0496    3.4270 C   0  0  0  0  0  0  0  0  0  0  0  0
   -0.5899   -0.0748    4.1550 H   0  0  0  0  0  0  0  0  0  0  0  0
   -2.3755   -0.0229    3.9997 H   0  0  0  0  0  0  0  0  0  0  0  0
   -1.3510    0.8998    2.8613 H   0  0  0  0  0  0  0  0  0  0  0  0
   -3.4281    0.3570   -1.8767 C   0  0  0  0  0  0  0  0  0  0  0  0
   -2.3590    0.4673   -2.1600 H   0  0  0  0  0  0  0  0  0  0  0  0
   -3.7407    1.3861   -1.5887 H   0  0  0  0  0  0  0  0  0  0  0  0
   -4.2363   -0.0987   -3.0902 C   0  0  0  0  0  0  0  0  0  0  0  0
   -4.0652    0.5833   -3.9464 H   0  0  0  0  0  0  0  0  0  0  0  0
   -5.3273   -0.1040   -2.8913 H   0  0  0  0  0  0  0  0  0  0  0  0
   -3.9469   -1.1210   -3.4091 H   0  0  0  0  0  0  0  0  0  0  0  0
  1 14  1  0  0  0  0
  2 26  1  0  0  0  0
  3 13  1  0  0  0  0
  4  3  1  0  0  0  0
  5  3  2  0  0  0  0
  5  7  1  0  0  0  0
  6  5  1  0  0  0  0
  7  9  2  0  0  0  0
  8  7  1  0  0  0  0
  9 11  1  0  0  0  0
  9 10  1  0  0  0  0
 11 12  1  0  0  0  0
 13  1  1  0  0  0  0
 13 11  2  0  0  0  0
 14 25  1  0  0  0  0
 15 17  1  0  0  0  0
 15 14  2  0  0  0  0
 16 15  1  0  0  0  0
 17 19  2  0  0  0  0
 18 17  1  0  0  0  0
 19 20  1  0  0  0  0
 19 21  1  0  0  0  0
 21 22  1  0  0  0  0
 23 21  2  0  0  0  0
 23 24  1  0  0  0  0
 25  2  1  1  0  0  0
 25 23  1  0  0  0  0
 26 27  1  0  0  0  0
 27 28  2  0  0  0  0
 27 35  1  0  0  0  0
 28 29  1  0  0  0  0
 30 31  1  0  0  0  0
 30 28  1  0  0  0  0
 32 30  2  0  0  0  0
 33 32  1  0  0  0  0
 34 32  1  0  0  0  0
 34 26  2  0  0  0  0
 35 36  1  0  0  0  0
 35 38  1  0  0  0  0
 37 35  1  0  0  0  0
 38 40  1  0  0  0  0
 38 39  1  0  0  0  0
 41 38  1  0  0  0  0
 42 44  1  0  0  0  0
 42 34  1  0  0  0  0
 43 42  1  0  0  0  0
 45 47  1  0  0  0  0
 45 42  1  0  0  0  0
 46 45  1  0  0  0  0
 48 45  1  0  0  0  0
M  END
