8,9
 OpenBabel05122313053D

 17 18  0  0  1  0  0  0  0  0999 V2000
   -2.1992   -0.7830   -0.0954 C   0  0  1  0  0  3  0  0  0  0  0  0
   -1.5711    1.4027    0.4609 N   0  0  0  0  0  0  0  0  0  0  0  0
   -2.8490    1.7696    0.4096 C   0  0  0  0  0  0  0  0  0  0  0  0
   -3.5610   -0.4429   -0.1642 C   0  0  0  0  0  0  0  0  0  0  0  0
   -4.3229   -1.1908   -0.4223 H   0  0  0  0  0  0  0  0  0  0  0  0
   -3.9034    0.8775    0.0921 C   0  0  0  0  0  0  0  0  0  0  0  0
   -4.9428    1.2293    0.0485 H   0  0  0  0  0  0  0  0  0  0  0  0
   -1.2509    0.1433    0.2095 N   0  0  0  0  0  2  0  0  0  0  0  0
   -0.3257   -2.1947   -0.2394 N   0  0  0  0  0  2  0  0  0  0  0  0
   -1.6853   -2.0556   -0.3195 N   0  0  0  0  0  0  0  0  0  0  0  0
   -0.0555   -3.4657   -0.5591 C   0  0  0  0  0  3  0  0  0  0  0  0
    0.9817   -3.8147   -0.5981 H   0  0  0  0  0  0  0  0  0  0  0  0
   -1.2576   -4.1684   -0.8317 C   0  0  0  0  0  0  0  0  0  0  0  0
   -1.3616   -5.2215   -1.1108 H   0  0  0  0  0  0  0  0  0  0  0  0
   -2.2783   -3.2447   -0.6742 C   0  0  0  0  0  0  0  0  0  0  0  0
   -3.3628   -3.3389   -0.7864 H   0  0  0  0  0  0  0  0  0  0  0  0
   -3.1807    3.4230    0.7433 Cl  0  0  0  0  0  0  0  0  0  0  0  0
  1 10  1  1  0  0  0
  1  8  1  0  0  0  0
  3  2  2  0  0  0  0
  3 17  1  0  0  0  0
  4  1  1  0  0  0  0
  4  6  2  0  0  0  0
  5  4  1  0  0  0  0
  6  3  1  0  0  0  0
  7  6  1  0  0  0  0
  8  2  1  0  0  0  0
 10  9  1  0  0  0  0
 11  9  1  0  0  0  0
 12 11  1  0  0  0  0
 13 15  2  0  0  0  0
 13 11  1  0  0  0  0
 14 13  1  0  0  0  0
 15 10  1  0  0  0  0
 16 15  1  0  0  0  0
M  END
