31,68
 OpenBabel05122313053D

 74 79  0  0  0  0  0  0  0  0999 V2000
    6.7373    1.1044   -0.2248 F   0  0  0  0  0  0  0  0  0  0  0  0
    2.3467    2.7538    1.0489 C   0  0  0  0  0  0  0  0  0  0  0  0
    2.7231    3.3912    2.2533 C   0  0  0  0  0  0  0  0  0  0  0  0
    3.6553    3.0861    2.7538 H   0  0  0  0  0  0  0  0  0  0  0  0
    1.9104    4.3805    2.8261 C   0  0  0  0  0  0  0  0  0  0  0  0
    2.2159    4.8611    3.7682 H   0  0  0  0  0  0  0  0  0  0  0  0
    0.7089    4.7473    2.2003 C   0  0  0  0  0  0  0  0  0  0  0  0
    0.0623    5.5164    2.6499 H   0  0  0  0  0  0  0  0  0  0  0  0
    0.3373    4.1356    0.9919 C   0  0  0  0  0  0  0  0  0  0  0  0
   -0.5947    4.4238    0.4872 H   0  0  0  0  0  0  0  0  0  0  0  0
    1.1494    3.1506    0.4146 C   0  0  0  0  0  0  0  0  0  0  0  0
    0.8613    2.6891   -0.5425 H   0  0  0  0  0  0  0  0  0  0  0  0
    3.2089    1.6725    0.5007 C   0  0  0  0  0  0  0  0  0  0  0  0
    4.5896    1.9025    0.3565 C   0  0  0  0  0  0  0  0  0  0  0  0
    5.0139    2.8936    0.5682 H   0  0  0  0  0  0  0  0  0  0  0  0
    5.4218    0.8707   -0.0788 C   0  0  0  0  0  0  0  0  0  0  0  0
    4.9206   -0.4032   -0.3536 C   0  0  0  0  0  0  0  0  0  0  0  0
    5.6058   -1.1990   -0.6767 H   0  0  0  0  0  0  0  0  0  0  0  0
    3.5427   -0.6660   -0.2291 C   0  0  0  0  0  0  0  0  0  0  0  0
    3.1027   -2.0789   -0.4532 C   0  0  0  0  0  0  0  0  0  0  0  0
    3.5563   -3.0738    0.4412 C   0  0  0  0  0  0  0  0  0  0  0  0
    4.1371   -2.7751    1.3279 H   0  0  0  0  0  0  0  0  0  0  0  0
    3.2965   -4.4306    0.1969 C   0  0  0  0  0  0  0  0  0  0  0  0
    3.6654   -5.1931    0.8999 H   0  0  0  0  0  0  0  0  0  0  0  0
    2.5746   -4.8120   -0.9459 C   0  0  0  0  0  0  0  0  0  0  0  0
    2.3764   -5.8762   -1.1454 H   0  0  0  0  0  0  0  0  0  0  0  0
    2.1064   -3.8279   -1.8316 C   0  0  0  0  0  0  0  0  0  0  0  0
    1.5409   -4.1145   -2.7311 H   0  0  0  0  0  0  0  0  0  0  0  0
    2.3690   -2.4702   -1.5934 C   0  0  0  0  0  0  0  0  0  0  0  0
    2.0439   -1.7045   -2.3128 H   0  0  0  0  0  0  0  0  0  0  0  0
    1.2840    0.1676    0.3371 N   0  0  0  0  0  2  0  0  0  0  0  0
    2.6878    0.3856    0.1889 C   0  0  0  0  0  0  0  0  0  0  0  0
    1.5029    0.0471    2.8104 C   0  0  0  0  0  0  0  0  0  0  0  0
    1.0927   -0.7070    3.5098 H   0  0  0  0  0  0  0  0  0  0  0  0
    1.4397    1.0413    3.3033 H   0  0  0  0  0  0  0  0  0  0  0  0
    2.5712   -0.1666    2.6263 H   0  0  0  0  0  0  0  0  0  0  0  0
    0.7328    0.0564    1.5289 C   0  0  0  0  0  0  0  0  0  0  0  0
   -6.7372   -1.1047   -0.2249 F   0  0  0  0  0  0  0  0  0  0  0  0
   -2.3466   -2.7539    1.0490 C   0  0  0  0  0  0  0  0  0  0  0  0
   -2.7231   -3.3916    2.2531 C   0  0  0  0  0  0  0  0  0  0  0  0
   -3.6555   -3.0867    2.7535 H   0  0  0  0  0  0  0  0  0  0  0  0
   -1.9104   -4.3809    2.8259 C   0  0  0  0  0  0  0  0  0  0  0  0
   -2.2160   -4.8617    3.7678 H   0  0  0  0  0  0  0  0  0  0  0  0
   -0.7087   -4.7474    2.2003 C   0  0  0  0  0  0  0  0  0  0  0  0
   -0.0621   -5.5166    2.6498 H   0  0  0  0  0  0  0  0  0  0  0  0
   -0.3370   -4.1355    0.9920 C   0  0  0  0  0  0  0  0  0  0  0  0
    0.5951   -4.4234    0.4874 H   0  0  0  0  0  0  0  0  0  0  0  0
   -1.1492   -3.1504    0.4148 C   0  0  0  0  0  0  0  0  0  0  0  0
   -0.8610   -2.6887   -0.5422 H   0  0  0  0  0  0  0  0  0  0  0  0
   -3.2088   -1.6725    0.5008 C   0  0  0  0  0  0  0  0  0  0  0  0
   -4.5895   -1.9026    0.3566 C   0  0  0  0  0  0  0  0  0  0  0  0
   -5.0138   -2.8937    0.5683 H   0  0  0  0  0  0  0  0  0  0  0  0
   -5.4218   -0.8709   -0.0788 C   0  0  0  0  0  0  0  0  0  0  0  0
   -4.9206    0.4030   -0.3535 C   0  0  0  0  0  0  0  0  0  0  0  0
   -5.6058    1.1988   -0.6767 H   0  0  0  0  0  0  0  0  0  0  0  0
   -3.5428    0.6659   -0.2290 C   0  0  0  0  0  0  0  0  0  0  0  0
   -3.1028    2.0788   -0.4531 C   0  0  0  0  0  0  0  0  0  0  0  0
   -3.5559    3.0736    0.4416 C   0  0  0  0  0  0  0  0  0  0  0  0
   -4.1365    2.7749    1.3285 H   0  0  0  0  0  0  0  0  0  0  0  0
   -3.2962    4.4305    0.1974 C   0  0  0  0  0  0  0  0  0  0  0  0
   -3.6648    5.1929    0.9006 H   0  0  0  0  0  0  0  0  0  0  0  0
   -2.5746    4.8120   -0.9456 C   0  0  0  0  0  0  0  0  0  0  0  0
   -2.3765    5.8762   -1.1451 H   0  0  0  0  0  0  0  0  0  0  0  0
   -2.1069    3.8279   -1.8317 C   0  0  0  0  0  0  0  0  0  0  0  0
   -1.5417    4.1146   -2.7313 H   0  0  0  0  0  0  0  0  0  0  0  0
   -2.3695    2.4702   -1.5935 C   0  0  0  0  0  0  0  0  0  0  0  0
   -2.0446    1.7046   -2.3131 H   0  0  0  0  0  0  0  0  0  0  0  0
   -1.2841   -0.1675    0.3372 N   0  0  0  0  0  2  0  0  0  0  0  0
   -2.6878   -0.3856    0.1891 C   0  0  0  0  0  0  0  0  0  0  0  0
   -1.5028   -0.0470    2.8105 C   0  0  0  0  0  0  0  0  0  0  0  0
   -1.0921    0.7063    3.5103 H   0  0  0  0  0  0  0  0  0  0  0  0
   -1.4403   -1.0416    3.3029 H   0  0  0  0  0  0  0  0  0  0  0  0
   -2.5709    0.1675    2.6265 H   0  0  0  0  0  0  0  0  0  0  0  0
   -0.7327   -0.0563    1.5290 C   0  0  0  0  0  0  0  0  0  0  0  0
  1 16  1  0  0  0  0
  2  3  1  0  0  0  0
  3  4  1  0  0  0  0
  3  5  2  0  0  0  0
  5  6  1  0  0  0  0
  7  8  1  0  0  0  0
  7  5  1  0  0  0  0
  9  7  2  0  0  0  0
 10  9  1  0  0  0  0
 11  9  1  0  0  0  0
 11  2  2  0  0  0  0
 12 11  1  0  0  0  0
 13  2  1  0  0  0  0
 14 13  1  0  0  0  0
 14 15  1  0  0  0  0
 16 14  2  0  0  0  0
 17 19  2  0  0  0  0
 17 16  1  0  0  0  0
 18 17  1  0  0  0  0
 19 32  1  0  0  0  0
 20 19  1  0  0  0  0
 20 21  1  0  0  0  0
 21 22  1  0  0  0  0
 23 21  2  0  0  0  0
 23 24  1  0  0  0  0
 25 23  1  0  0  0  0
 26 25  1  0  0  0  0
 27 29  1  0  0  0  0
 27 25  2  0  0  0  0
 28 27  1  0  0  0  0
 29 20  2  0  0  0  0
 30 29  1  0  0  0  0
 31 37  1  0  0  0  0
 32 31  1  0  0  0  0
 32 13  2  0  0  0  0
 33 35  1  0  0  0  0
 33 34  1  0  0  0  0
 36 33  1  0  0  0  0
 37 74  2  0  0  0  0
 37 33  1  0  0  0  0
 38 53  1  0  0  0  0
 39 40  1  0  0  0  0
 40 41  1  0  0  0  0
 40 42  2  0  0  0  0
 42 43  1  0  0  0  0
 44 45  1  0  0  0  0
 44 42  1  0  0  0  0
 46 44  2  0  0  0  0
 47 46  1  0  0  0  0
 48 46  1  0  0  0  0
 48 39  2  0  0  0  0
 49 48  1  0  0  0  0
 50 39  1  0  0  0  0
 51 50  1  0  0  0  0
 51 52  1  0  0  0  0
 53 51  2  0  0  0  0
 54 56  2  0  0  0  0
 54 53  1  0  0  0  0
 55 54  1  0  0  0  0
 56 69  1  0  0  0  0
 57 56  1  0  0  0  0
 57 58  1  0  0  0  0
 58 59  1  0  0  0  0
 60 58  2  0  0  0  0
 60 61  1  0  0  0  0
 62 60  1  0  0  0  0
 63 62  1  0  0  0  0
 64 66  1  0  0  0  0
 64 62  2  0  0  0  0
 65 64  1  0  0  0  0
 66 57  2  0  0  0  0
 67 66  1  0  0  0  0
 68 74  1  0  0  0  0
 69 68  1  0  0  0  0
 69 50  2  0  0  0  0
 70 72  1  0  0  0  0
 70 71  1  0  0  0  0
 73 70  1  0  0  0  0
 74 70  1  0  0  0  0
M  END
