1,23
 OpenBabel05122313053D

 42 43  0  0  1  0  0  0  0  0999 V2000
   -1.5758    0.8042   -1.0808 N   0  0  0  0  0  2  0  0  0  0  0  0
   -2.7835    1.2874   -3.1931 C   0  0  0  0  0  0  0  0  0  0  0  0
   -2.7875    2.3883   -3.0596 H   0  0  0  0  0  0  0  0  0  0  0  0
   -3.7790    0.9142   -2.8742 H   0  0  0  0  0  0  0  0  0  0  0  0
   -2.6726    1.0743   -4.2712 H   0  0  0  0  0  0  0  0  0  0  0  0
   -1.6804    0.6135   -2.3941 C   0  0  0  0  0  0  0  0  0  0  0  0
   -0.8121   -0.2338   -3.1350 C   0  0  0  0  0  0  0  0  0  0  0  0
   -1.0089   -0.2590   -4.2148 H   0  0  0  0  0  0  0  0  0  0  0  0
   -1.8613    2.8624    0.2703 C   0  0  0  0  0  0  0  0  0  0  0  0
   -1.3881    3.9096   -0.5466 C   0  0  0  0  0  0  0  0  0  0  0  0
   -1.4942    3.8323   -1.6406 H   0  0  0  0  0  0  0  0  0  0  0  0
   -0.7799    5.0411    0.0154 C   0  0  0  0  0  0  0  0  0  0  0  0
   -0.4188    5.8513   -0.6367 H   0  0  0  0  0  0  0  0  0  0  0  0
   -0.6327    5.1415    1.4096 C   0  0  0  0  0  0  0  0  0  0  0  0
   -0.1577    6.0303    1.8527 H   0  0  0  0  0  0  0  0  0  0  0  0
   -1.0955    4.1025    2.2323 C   0  0  0  0  0  0  0  0  0  0  0  0
   -0.9744    4.1649    3.3247 H   0  0  0  0  0  0  0  0  0  0  0  0
   -1.7007    2.9711    1.6637 C   0  0  0  0  0  0  0  0  0  0  0  0
   -2.0356    2.1441    2.3087 H   0  0  0  0  0  0  0  0  0  0  0  0
   -2.5137    1.6345   -0.3399 C   0  0  0  0  0  0  0  0  0  0  0  0
   -2.9374    1.0214    0.4840 H   0  0  0  0  0  0  0  0  0  0  0  0
   -3.3758    1.9521   -0.9627 H   0  0  0  0  0  0  0  0  0  0  0  0
    0.6385   -1.2338   -1.4414 N   0  0  0  0  0  2  0  0  0  0  0  0
    0.9659   -1.8335   -3.8155 C   0  0  0  0  0  0  0  0  0  0  0  0
    0.8798   -2.9322   -3.6782 H   0  0  0  0  0  0  0  0  0  0  0  0
    2.0493   -1.5948   -3.8234 H   0  0  0  0  0  0  0  0  0  0  0  0
    0.5468   -1.5813   -4.8059 H   0  0  0  0  0  0  0  0  0  0  0  0
    0.2497   -1.0764   -2.7117 C   0  0  1  0  0  3  0  0  0  0  0  0
    1.7599   -2.6236    0.2690 C   0  0  0  0  0  0  0  0  0  0  0  0
    1.1066   -3.8419    0.5443 C   0  0  0  0  0  0  0  0  0  0  0  0
    0.6446   -4.4056   -0.2824 H   0  0  0  0  0  0  0  0  0  0  0  0
    1.0514   -4.3496    1.8509 C   0  0  0  0  0  0  0  0  0  0  0  0
    0.5423   -5.3058    2.0477 H   0  0  0  0  0  0  0  0  0  0  0  0
    1.6505   -3.6397    2.9053 C   0  0  0  0  0  0  0  0  0  0  0  0
    1.6109   -4.0371    3.9313 H   0  0  0  0  0  0  0  0  0  0  0  0
    2.3081   -2.4278    2.6420 C   0  0  0  0  0  0  0  0  0  0  0  0
    2.7740   -1.8602    3.4610 H   0  0  0  0  0  0  0  0  0  0  0  0
    2.3633   -1.9276    1.3330 C   0  0  0  0  0  0  0  0  0  0  0  0
    2.8699   -0.9747    1.1260 H   0  0  0  0  0  0  0  0  0  0  0  0
    1.7990   -2.0742   -1.1409 C   0  0  0  0  0  0  0  0  0  0  0  0
    2.7328   -1.4804   -1.2743 H   0  0  0  0  0  0  0  0  0  0  0  0
    1.8710   -2.9336   -1.8407 H   0  0  0  0  0  0  0  0  0  0  0  0
  1 20  1  0  0  0  0
  2  3  1  0  0  0  0
  2  4  1  0  0  0  0
  2  6  1  0  0  0  0
  5  2  1  0  0  0  0
  6  1  1  0  0  0  0
  7  6  2  0  0  0  0
  8  7  1  0  0  0  0
  9 18  1  0  0  0  0
 10 12  1  0  0  0  0
 10  9  2  0  0  0  0
 11 10  1  0  0  0  0
 12 14  2  0  0  0  0
 13 12  1  0  0  0  0
 14 15  1  0  0  0  0
 14 16  1  0  0  0  0
 16 17  1  0  0  0  0
 18 16  2  0  0  0  0
 18 19  1  0  0  0  0
 20  9  1  0  0  0  0
 20 21  1  0  0  0  0
 22 20  1  0  0  0  0
 23 40  1  0  0  0  0
 24 25  1  0  0  0  0
 24 28  1  0  0  0  0
 26 24  1  0  0  0  0
 27 24  1  0  0  0  0
 28  7  1  1  0  0  0
 28 23  1  0  0  0  0
 29 30  2  0  0  0  0
 29 38  1  0  0  0  0
 30 32  1  0  0  0  0
 31 30  1  0  0  0  0
 32 33  1  0  0  0  0
 32 34  2  0  0  0  0
 34 35  1  0  0  0  0
 36 34  1  0  0  0  0
 36 37  1  0  0  0  0
 38 36  2  0  0  0  0
 39 38  1  0  0  0  0
 40 29  1  0  0  0  0
 41 40  1  0  0  0  0
 42 40  1  0  0  0  0
M  END
