2,3
 OpenBabel05122313053D

 27 28  0  0  0  0  0  0  0  0999 V2000
   -3.6668   -0.3369   -0.8916 Br  0  0  0  0  0  0  0  0  0  0  0  0
    1.2086    1.1077   -0.0947 N   0  0  0  0  0  2  0  0  0  0  0  0
   -1.4024    1.1738   -0.1547 N   0  0  0  0  0  2  0  0  0  0  0  0
    6.9221    0.4796   -0.3855 C   0  0  0  0  0  0  0  0  0  0  0  0
    7.4358    0.8306    0.5290 H   0  0  0  0  0  0  0  0  0  0  0  0
    7.3230    1.0613   -1.2425 H   0  0  0  0  0  0  0  0  0  0  0  0
    7.2047   -0.5781   -0.5606 H   0  0  0  0  0  0  0  0  0  0  0  0
    5.4298    0.6399   -0.2895 C   0  0  0  0  0  0  0  0  0  0  0  0
    4.8338    1.3585    0.7680 C   0  0  0  0  0  0  0  0  0  0  0  0
    5.4710    1.7903    1.5548 H   0  0  0  0  0  0  0  0  0  0  0  0
    3.4453    1.5268    0.8431 C   0  0  0  0  0  0  0  0  0  0  0  0
    2.9962    2.0722    1.6873 H   0  0  0  0  0  0  0  0  0  0  0  0
    2.6203    0.9524   -0.1442 C   0  0  0  0  0  0  0  0  0  0  0  0
    3.1915    0.2158   -1.2038 C   0  0  0  0  0  0  0  0  0  0  0  0
    2.5275   -0.1959   -1.9790 H   0  0  0  0  0  0  0  0  0  0  0  0
    4.5797    0.0791   -1.2720 C   0  0  0  0  0  0  0  0  0  0  0  0
    5.0223   -0.4740   -2.1150 H   0  0  0  0  0  0  0  0  0  0  0  0
    0.6773    2.2887    0.0959 C   0  0  0  0  0  0  0  0  0  0  0  0
    1.3031    3.1910    0.1980 H   0  0  0  0  0  0  0  0  0  0  0  0
   -0.7589    2.3777    0.0587 C   0  0  0  0  0  0  0  0  0  0  0  0
   -1.4443    3.5999    0.1476 C   0  0  0  0  0  0  0  0  0  0  0  0
   -0.8761    4.5235    0.3246 H   0  0  0  0  0  0  0  0  0  0  0  0
   -2.8324    3.6117   -0.0154 C   0  0  0  0  0  0  0  0  0  0  0  0
   -3.4045    4.5479    0.0565 H   0  0  0  0  0  0  0  0  0  0  0  0
   -3.4817    2.4079   -0.3065 C   0  0  0  0  0  0  0  0  0  0  0  0
   -4.5651    2.3669   -0.4791 H   0  0  0  0  0  0  0  0  0  0  0  0
   -2.7313    1.2188   -0.3901 C   0  0  0  0  0  0  0  0  0  0  0  0
  1 27  1  0  0  0  0
  2 18  1  0  0  0  0
  3 20  1  0  0  0  0
  4  8  1  0  0  0  0
  4  5  1  0  0  0  0
  6  4  1  0  0  0  0
  7  4  1  0  0  0  0
  8  9  1  0  0  0  0
  9 11  2  0  0  0  0
  9 10  1  0  0  0  0
 11 12  1  0  0  0  0
 13  2  1  0  0  0  0
 13 11  1  0  0  0  0
 14 13  2  0  0  0  0
 15 14  1  0  0  0  0
 16 14  1  0  0  0  0
 16  8  2  0  0  0  0
 17 16  1  0  0  0  0
 18 19  1  0  0  0  0
 20 18  2  0  0  0  0
 20 21  1  0  0  0  0
 21 22  1  0  0  0  0
 23 24  1  0  0  0  0
 23 21  2  0  0  0  0
 25 23  1  0  0  0  0
 26 25  1  0  0  0  0
 27 25  2  0  0  0  0
 27  3  1  0  0  0  0
M  END
