2,4
 OpenBabel05122313053D

 49 50  0  0  1  0  0  0  0  0999 V2000
    0.0065    3.1375   -0.1740 I   0  0  0  0  0  0  0  0  0  0  0  0
    1.5239   -0.0762    0.5739 N   0  0  0  0  0  2  0  0  0  0  0  0
    1.3069    0.8779    1.4245 C   0  0  2  0  0  3  0  0  0  0  0  0
   -1.5343   -0.0736    0.5531 N   0  0  0  0  0  2  0  0  0  0  0  0
   -0.0066    1.6234    1.4518 C   0  0  2  0  0  0  0  0  0  0  0  0
   -0.0134    2.2739    2.3423 H   0  0  0  0  0  0  0  0  0  0  0  0
   -1.3245    0.8859    1.3999 C   0  0  1  0  0  3  0  0  0  0  0  0
    2.3051    1.3383    2.4457 C   0  0  0  0  0  0  0  0  0  0  0  0
    3.2605    0.7904    2.3740 H   0  0  0  0  0  0  0  0  0  0  0  0
    1.8808    1.2002    3.4628 H   0  0  0  0  0  0  0  0  0  0  0  0
    2.4923    2.4262    2.3281 H   0  0  0  0  0  0  0  0  0  0  0  0
   -2.3417    1.3674    2.3929 C   0  0  0  0  0  0  0  0  0  0  0  0
   -3.3138    0.8577    2.2788 H   0  0  0  0  0  0  0  0  0  0  0  0
   -2.4821    2.4633    2.2878 H   0  0  0  0  0  0  0  0  0  0  0  0
   -1.9607    1.1952    3.4222 H   0  0  0  0  0  0  0  0  0  0  0  0
    2.8145   -0.7032    0.4887 C   0  0  0  0  0  0  0  0  0  0  0  0
    2.9622   -2.0207    0.9850 C   0  0  0  0  0  0  0  0  0  0  0  0
    4.2167   -2.6400    0.8394 C   0  0  0  0  0  0  0  0  0  0  0  0
    4.3541   -3.6591    1.2319 H   0  0  0  0  0  0  0  0  0  0  0  0
    5.2782   -1.9820    0.2046 C   0  0  0  0  0  0  0  0  0  0  0  0
    6.2497   -2.4852    0.0931 H   0  0  0  0  0  0  0  0  0  0  0  0
    5.0994   -0.6863   -0.2948 C   0  0  0  0  0  0  0  0  0  0  0  0
    5.9287   -0.1738   -0.8058 H   0  0  0  0  0  0  0  0  0  0  0  0
    3.8683   -0.0157   -0.1649 C   0  0  0  0  0  0  0  0  0  0  0  0
    1.8094   -2.7351    1.6353 C   0  0  0  0  0  0  0  0  0  0  0  0
    1.3438   -2.1372    2.4452 H   0  0  0  0  0  0  0  0  0  0  0  0
    2.1279   -3.7030    2.0639 H   0  0  0  0  0  0  0  0  0  0  0  0
    1.0069   -2.9435    0.8948 H   0  0  0  0  0  0  0  0  0  0  0  0
    3.6884    1.3770   -0.7128 C   0  0  0  0  0  0  0  0  0  0  0  0
    4.5081    1.6325   -1.4097 H   0  0  0  0  0  0  0  0  0  0  0  0
    3.6971    2.1453    0.0895 H   0  0  0  0  0  0  0  0  0  0  0  0
    2.7274    1.4960   -1.2526 H   0  0  0  0  0  0  0  0  0  0  0  0
   -2.8320   -0.6884    0.4717 C   0  0  0  0  0  0  0  0  0  0  0  0
   -3.8461   -0.0272   -0.2668 C   0  0  0  0  0  0  0  0  0  0  0  0
   -5.0931   -0.6706   -0.3791 C   0  0  0  0  0  0  0  0  0  0  0  0
   -5.8931   -0.1775   -0.9519 H   0  0  0  0  0  0  0  0  0  0  0  0
   -5.3219   -1.9174    0.2168 C   0  0  0  0  0  0  0  0  0  0  0  0
   -6.3044   -2.4016    0.1182 H   0  0  0  0  0  0  0  0  0  0  0  0
   -4.2977   -2.5505    0.9325 C   0  0  0  0  0  0  0  0  0  0  0  0
   -4.4755   -3.5312    1.3993 H   0  0  0  0  0  0  0  0  0  0  0  0
   -3.0298   -1.9553    1.0681 C   0  0  0  0  0  0  0  0  0  0  0  0
   -3.5921    1.3045   -0.9235 C   0  0  0  0  0  0  0  0  0  0  0  0
   -2.6721    1.2875   -1.5438 H   0  0  0  0  0  0  0  0  0  0  0  0
   -3.4567    2.1205   -0.1825 H   0  0  0  0  0  0  0  0  0  0  0  0
   -4.4395    1.5910   -1.5732 H   0  0  0  0  0  0  0  0  0  0  0  0
   -1.9173   -2.6456    1.8091 C   0  0  0  0  0  0  0  0  0  0  0  0
   -1.4489   -1.9924    2.5737 H   0  0  0  0  0  0  0  0  0  0  0  0
   -1.1076   -2.9492    1.1121 H   0  0  0  0  0  0  0  0  0  0  0  0
   -2.2807   -3.5580    2.3165 H   0  0  0  0  0  0  0  0  0  0  0  0
  1  5  1  0  0  0  0
  3  2  1  6  0  0  0
  3  5  1  0  0  0  0
  3  8  1  0  0  0  0
  5  6  1  1  0  0  0
  7  4  1  6  0  0  0
  7  5  1  0  0  0  0
  7 12  1  0  0  0  0
  8 10  1  0  0  0  0
  9  8  1  0  0  0  0
 11  8  1  0  0  0  0
 12 15  1  0  0  0  0
 13 12  1  0  0  0  0
 14 12  1  0  0  0  0
 16  2  1  0  0  0  0
 16 17  1  0  0  0  0
 17 25  1  0  0  0  0
 18 17  2  0  0  0  0
 18 19  1  0  0  0  0
 20 18  1  0  0  0  0
 21 20  1  0  0  0  0
 22 24  1  0  0  0  0
 22 20  2  0  0  0  0
 23 22  1  0  0  0  0
 24 16  2  0  0  0  0
 25 27  1  0  0  0  0
 25 26  1  0  0  0  0
 28 25  1  0  0  0  0
 29 24  1  0  0  0  0
 29 31  1  0  0  0  0
 30 29  1  0  0  0  0
 32 29  1  0  0  0  0
 33  4  1  0  0  0  0
 33 41  1  0  0  0  0
 34 33  2  0  0  0  0
 35 34  1  0  0  0  0
 35 37  2  0  0  0  0
 36 35  1  0  0  0  0
 37 39  1  0  0  0  0
 38 37  1  0  0  0  0
 39 41  2  0  0  0  0
 39 40  1  0  0  0  0
 41 46  1  0  0  0  0
 42 34  1  0  0  0  0
 42 44  1  0  0  0  0
 43 42  1  0  0  0  0
 45 42  1  0  0  0  0
 46 49  1  0  0  0  0
 46 47  1  0  0  0  0
 48 46  1  0  0  0  0
M  END
