1,5
 OpenBabel05122313053D

 29 30  0  0  1  0  0  0  0  0999 V2000
    0.9748   -1.1453    0.1506 N   0  0  0  0  0  0  0  0  0  0  0  0
   -0.1080   -1.8144    0.8973 C   0  0  0  0  0  0  0  0  0  0  0  0
   -0.0095   -1.4786    1.9544 H   0  0  0  0  0  0  0  0  0  0  0  0
   -0.0081   -2.9235    0.8639 H   0  0  0  0  0  0  0  0  0  0  0  0
   -1.5461   -0.0840    0.0297 N   0  0  0  0  0  2  0  0  0  0  0  0
   -1.4690   -1.3858    0.3904 C   0  0  2  0  0  3  0  0  0  0  0  0
   -2.5700   -2.2391    0.3270 C   0  0  0  0  0  0  0  0  0  0  0  0
   -2.4778   -3.2940    0.6186 H   0  0  0  0  0  0  0  0  0  0  0  0
   -3.7952   -1.6976   -0.1190 C   0  0  0  0  0  0  0  0  0  0  0  0
   -4.6910   -2.3347   -0.1729 H   0  0  0  0  0  0  0  0  0  0  0  0
   -3.8741   -0.3681   -0.5144 C   0  0  0  0  0  0  0  0  0  0  0  0
   -4.8148    0.0613   -0.8880 H   0  0  0  0  0  0  0  0  0  0  0  0
   -2.7020    0.4419   -0.4534 C   0  0  0  0  0  0  0  0  0  0  0  0
   -2.6794    1.7382   -0.8438 N   0  0  0  0  0  0  0  0  0  0  0  0
    2.2844   -1.3138    0.8206 C   0  0  0  0  0  0  0  0  0  0  0  0
    2.5289   -2.3993    0.9052 H   0  0  0  0  0  0  0  0  0  0  0  0
    2.2026   -0.8656    1.8322 H   0  0  0  0  0  0  0  0  0  0  0  0
    3.3644   -0.5977    0.0178 C   0  0  0  0  0  0  0  0  0  0  0  0
    3.1565    0.5020    0.0347 H   0  0  0  0  0  0  0  0  0  0  0  0
    4.3558   -0.7657    0.4824 H   0  0  0  0  0  0  0  0  0  0  0  0
    3.4356   -1.0771   -1.3140 O   0  0  0  0  0  0  0  0  0  0  0  0
    2.1972   -0.8783   -1.9752 C   0  0  0  0  0  0  0  0  0  0  0  0
    2.3049   -1.2820   -3.0015 H   0  0  0  0  0  0  0  0  0  0  0  0
    1.9516    0.2089   -2.0474 H   0  0  0  0  0  0  0  0  0  0  0  0
    1.0538   -1.5940   -1.2579 C   0  0  0  0  0  0  0  0  0  0  0  0
    0.0925   -1.3653   -1.7610 H   0  0  0  0  0  0  0  0  0  0  0  0
    1.2126   -2.6990   -1.2876 H   0  0  0  0  0  0  0  0  0  0  0  0
   -3.4940    2.1272   -1.3130 H   0  0  0  0  0  0  0  0  0  0  0  0
   -1.7553    2.1768   -1.0193 H   0  0  0  0  0  0  0  0  0  0  0  0
  1 15  1  0  0  0  0
  1  2  1  0  0  0  0
  2  3  1  0  0  0  0
  4  2  1  0  0  0  0
  5  6  1  0  0  0  0
  6  2  1  1  0  0  0
  7  6  1  0  0  0  0
  7  8  1  0  0  0  0
  9  7  2  0  0  0  0
 10  9  1  0  0  0  0
 11 13  2  0  0  0  0
 11  9  1  0  0  0  0
 12 11  1  0  0  0  0
 13  5  1  0  0  0  0
 14 13  1  0  0  0  0
 15 16  1  0  0  0  0
 15 17  1  0  0  0  0
 18 19  1  0  0  0  0
 18 20  1  0  0  0  0
 18 15  1  0  0  0  0
 21 18  1  0  0  0  0
 22 21  1  0  0  0  0
 22 25  1  0  0  0  0
 23 22  1  0  0  0  0
 24 22  1  0  0  0  0
 25  1  1  0  0  0  0
 26 25  1  0  0  0  0
 27 25  1  0  0  0  0
 28 14  1  0  0  0  0
 29 14  1  0  0  0  0
M  END
