1,2
 OpenBabel05122313053D

 36 37  0  0  0  0  0  0  0  0999 V2000
    1.9125    1.5101   -0.0960 N   0  0  0  0  0  2  0  0  0  0  0  0
   -0.5240    1.4366    0.0097 N   0  0  0  0  0  2  0  0  0  0  0  0
    1.3889    2.7137   -0.0619 N   0  0  0  0  0  0  0  0  0  0  0  0
    3.3202    1.5120   -0.3244 C   0  0  0  0  0  0  0  0  0  0  0  0
   -1.9199    1.2026    0.0234 C   0  0  0  0  0  0  0  0  0  0  0  0
   -2.5320    0.6558   -1.1197 C   0  0  0  0  0  0  0  0  0  0  0  0
   -1.9209    0.4913   -2.0187 H   0  0  0  0  0  0  0  0  0  0  0  0
   -2.6652    1.3695    1.2094 C   0  0  0  0  0  0  0  0  0  0  0  0
   -2.1702    1.7828    2.0986 H   0  0  0  0  0  0  0  0  0  0  0  0
    0.0311    2.6528    0.0121 C   0  0  0  0  0  0  0  0  0  0  0  0
   -4.0066    0.9877    1.2439 C   0  0  0  0  0  0  0  0  0  0  0  0
   -4.5811    1.1401    2.1689 H   0  0  0  0  0  0  0  0  0  0  0  0
   -3.8812    0.2911   -1.0779 C   0  0  0  0  0  0  0  0  0  0  0  0
   -4.3583   -0.1338   -1.9720 H   0  0  0  0  0  0  0  0  0  0  0  0
    3.8501    0.6719   -1.3231 C   0  0  0  0  0  0  0  0  0  0  0  0
    3.1556    0.0518   -1.9121 H   0  0  0  0  0  0  0  0  0  0  0  0
   -1.9481    3.9727   -0.1028 O   0  0  0  0  0  0  0  0  0  0  0  0
   -4.6404    0.4279    0.1057 C   0  0  0  0  0  0  0  0  0  0  0  0
   -0.7251    3.9509   -0.0345 C   0  0  0  0  0  0  0  0  0  0  0  0
    5.2339    0.6661   -1.5452 C   0  0  0  0  0  0  0  0  0  0  0  0
    5.6518    0.0222   -2.3340 H   0  0  0  0  0  0  0  0  0  0  0  0
    4.1599    2.3422    0.4432 C   0  0  0  0  0  0  0  0  0  0  0  0
    3.7108    2.9907    1.2078 H   0  0  0  0  0  0  0  0  0  0  0  0
    6.0838    1.4706   -0.7679 C   0  0  0  0  0  0  0  0  0  0  0  0
    7.1709    1.4510   -0.9383 H   0  0  0  0  0  0  0  0  0  0  0  0
    5.5436    2.3057    0.2261 C   0  0  0  0  0  0  0  0  0  0  0  0
    6.2069    2.9369    0.8367 H   0  0  0  0  0  0  0  0  0  0  0  0
    0.1156    5.2095   -0.0049 C   0  0  0  0  0  0  0  0  0  0  0  0
   -0.5530    6.0880   -0.0328 H   0  0  0  0  0  0  0  0  0  0  0  0
    0.8178    5.2246   -0.8620 H   0  0  0  0  0  0  0  0  0  0  0  0
    0.7489    5.2314    0.9049 H   0  0  0  0  0  0  0  0  0  0  0  0
   -6.0428   -0.0336    0.1900 C   0  0  0  0  0  0  0  0  0  0  0  0
   -6.9016   -0.1642   -1.3428 Cl  0  0  0  0  0  0  0  0  0  0  0  0
   -6.7044   -0.3694    1.3194 C   0  0  0  0  0  0  0  0  0  0  0  0
   -6.1921   -0.3429    2.2915 H   0  0  0  0  0  0  0  0  0  0  0  0
   -7.7566   -0.6818    1.2911 H   0  0  0  0  0  0  0  0  0  0  0  0
  1  3  1  0  0  0  0
  2 10  1  0  0  0  0
  2  5  1  0  0  0  0
  3 10  2  0  0  0  0
  4  1  1  0  0  0  0
  4 22  1  0  0  0  0
  5  8  1  0  0  0  0
  6 13  1  0  0  0  0
  6  5  2  0  0  0  0
  7  6  1  0  0  0  0
  8 11  2  0  0  0  0
  8  9  1  0  0  0  0
 11 12  1  0  0  0  0
 13 18  2  0  0  0  0
 14 13  1  0  0  0  0
 15  4  2  0  0  0  0
 16 15  1  0  0  0  0
 17 19  2  0  0  0  0
 18 32  1  0  0  0  0
 18 11  1  0  0  0  0
 19 28  1  0  0  0  0
 19 10  1  0  0  0  0
 20 15  1  0  0  0  0
 20 24  2  0  0  0  0
 21 20  1  0  0  0  0
 22 23  1  0  0  0  0
 24 26  1  0  0  0  0
 25 24  1  0  0  0  0
 26 22  2  0  0  0  0
 26 27  1  0  0  0  0
 28 31  1  0  0  0  0
 29 28  1  0  0  0  0
 30 28  1  0  0  0  0
 32 34  2  0  0  0  0
 33 32  1  0  0  0  0
 34 35  1  0  0  0  0
 36 34  1  0  0  0  0
M  END
