1,2
 OpenBabel05122313053D

 28 29  0  0  0  0  0  0  0  0999 V2000
   -1.0257   -1.5660   -0.6512 N   0  0  0  0  0  2  0  0  0  0  0  0
    1.4450   -1.2432   -0.1500 N   0  0  0  0  0  2  0  0  0  0  0  0
   -2.2665   -1.9164   -1.0670 C   0  0  0  0  0  3  0  0  0  0  0  0
   -3.0645   -1.1771   -1.1951 H   0  0  0  0  0  0  0  0  0  0  0  0
   -2.3380   -3.3200   -1.2576 C   0  0  0  0  0  0  0  0  0  0  0  0
   -3.2252   -3.8760   -1.5831 H   0  0  0  0  0  0  0  0  0  0  0  0
   -1.0720   -3.8445   -0.9411 C   0  0  0  0  0  0  0  0  0  0  0  0
   -0.7534   -4.8928   -0.9852 H   0  0  0  0  0  0  0  0  0  0  0  0
   -0.2706   -2.7313   -0.5822 C   0  0  0  0  0  0  0  0  0  0  0  0
    1.0948   -2.5300   -0.2545 C   0  0  0  0  0  0  0  0  0  0  0  0
    2.0282   -3.6803   -0.0077 C   0  0  0  0  0  0  0  0  0  0  0  0
    2.7466   -3.4470    0.8020 H   0  0  0  0  0  0  0  0  0  0  0  0
    2.6262   -3.9168   -0.9118 H   0  0  0  0  0  0  0  0  0  0  0  0
    1.4533   -4.5852    0.2622 H   0  0  0  0  0  0  0  0  0  0  0  0
    2.7461   -0.8610    0.2503 C   0  0  0  0  0  0  0  0  0  0  0  0
    3.8867   -1.2035   -0.5032 C   0  0  0  0  0  0  0  0  0  0  0  0
    3.7673   -1.7879   -1.4270 H   0  0  0  0  0  0  0  0  0  0  0  0
    5.1587   -0.7686   -0.1022 C   0  0  0  0  0  0  0  0  0  0  0  0
    6.0369   -1.0404   -0.7092 H   0  0  0  0  0  0  0  0  0  0  0  0
    5.3339    0.0221    1.0497 C   0  0  0  0  0  0  0  0  0  0  0  0
    4.1818    0.3641    1.7923 C   0  0  0  0  0  0  0  0  0  0  0  0
    4.2862    0.9892    2.6934 H   0  0  0  0  0  0  0  0  0  0  0  0
    2.9102   -0.0616    1.4016 C   0  0  0  0  0  0  0  0  0  0  0  0
    2.0169    0.2329    1.9707 H   0  0  0  0  0  0  0  0  0  0  0  0
    6.6971    0.5020    1.4785 C   0  0  0  0  0  0  0  0  0  0  0  0
    6.9526    0.1367    2.4954 H   0  0  0  0  0  0  0  0  0  0  0  0
    6.7403    1.6106    1.5175 H   0  0  0  0  0  0  0  0  0  0  0  0
    7.4891    0.1566    0.7863 H   0  0  0  0  0  0  0  0  0  0  0  0
  1  9  1  0  0  0  0
  2 15  1  0  0  0  0
  3  1  1  0  0  0  0
  4  3  1  0  0  0  0
  5  3  1  0  0  0  0
  5  7  2  0  0  0  0
  6  5  1  0  0  0  0
  7  9  1  0  0  0  0
  8  7  1  0  0  0  0
  9 10  2  0  0  0  0
 10  2  1  0  0  0  0
 10 11  1  0  0  0  0
 11 14  1  0  0  0  0
 11 12  1  0  0  0  0
 13 11  1  0  0  0  0
 15 23  1  0  0  0  0
 16 18  1  0  0  0  0
 16 15  2  0  0  0  0
 17 16  1  0  0  0  0
 18 20  2  0  0  0  0
 19 18  1  0  0  0  0
 20 25  1  0  0  0  0
 20 21  1  0  0  0  0
 21 22  1  0  0  0  0
 23 21  2  0  0  0  0
 23 24  1  0  0  0  0
 25 27  1  0  0  0  0
 25 26  1  0  0  0  0
 28 25  1  0  0  0  0
M  END
