1,2
 OpenBabel05122313053D

 31 32  0  0  0  0  0  0  0  0999 V2000
   -0.9602   -1.4560   -0.7486 N   0  0  0  0  0  2  0  0  0  0  0  0
    1.4052   -1.0067    0.0574 N   0  0  0  0  0  2  0  0  0  0  0  0
   -2.1199   -1.8822   -1.3053 C   0  0  0  0  0  3  0  0  0  0  0  0
   -2.8974   -1.1838   -1.6326 H   0  0  0  0  0  0  0  0  0  0  0  0
   -2.1417   -3.2991   -1.3624 C   0  0  0  0  0  0  0  0  0  0  0  0
   -2.9586   -3.9092   -1.7655 H   0  0  0  0  0  0  0  0  0  0  0  0
   -0.9280   -3.7528   -0.8145 C   0  0  0  0  0  0  0  0  0  0  0  0
   -0.5901   -4.7906   -0.7083 H   0  0  0  0  0  0  0  0  0  0  0  0
   -0.2071   -2.5865   -0.4544 C   0  0  0  0  0  0  0  0  0  0  0  0
    1.0983   -2.3069    0.0228 C   0  0  0  0  0  0  0  0  0  0  0  0
    2.0560   -3.3820    0.4439 C   0  0  0  0  0  0  0  0  0  0  0  0
    2.8843   -3.4836   -0.2872 H   0  0  0  0  0  0  0  0  0  0  0  0
    1.5415   -4.3562    0.5255 H   0  0  0  0  0  0  0  0  0  0  0  0
    2.5226   -3.1324    1.4176 H   0  0  0  0  0  0  0  0  0  0  0  0
    2.6842   -0.6049    0.5243 C   0  0  0  0  0  0  0  0  0  0  0  0
    2.7991   -0.0983    1.8332 C   0  0  0  0  0  0  0  0  0  0  0  0
    1.8926   -0.0303    2.4514 H   0  0  0  0  0  0  0  0  0  0  0  0
    4.0429    0.3186    2.3148 C   0  0  0  0  0  0  0  0  0  0  0  0
    4.1340    0.7152    3.3371 H   0  0  0  0  0  0  0  0  0  0  0  0
    5.1729    0.2346    1.4878 C   0  0  0  0  0  0  0  0  0  0  0  0
    6.1542    0.5620    1.8654 H   0  0  0  0  0  0  0  0  0  0  0  0
    5.0767   -0.2530    0.1714 C   0  0  0  0  0  0  0  0  0  0  0  0
    3.8147   -0.6715   -0.3305 C   0  0  0  0  0  0  0  0  0  0  0  0
    6.2983   -0.3161   -0.7094 C   0  0  0  0  0  0  0  0  0  0  0  0
    6.1906    0.3332   -1.6045 H   0  0  0  0  0  0  0  0  0  0  0  0
    6.4770   -1.3431   -1.0918 H   0  0  0  0  0  0  0  0  0  0  0  0
    7.2056    0.0080   -0.1651 H   0  0  0  0  0  0  0  0  0  0  0  0
    3.6785   -1.1324   -1.7581 C   0  0  0  0  0  0  0  0  0  0  0  0
    4.2016   -2.0974   -1.9338 H   0  0  0  0  0  0  0  0  0  0  0  0
    4.1361   -0.4025   -2.4573 H   0  0  0  0  0  0  0  0  0  0  0  0
    2.6184   -1.2568   -2.0441 H   0  0  0  0  0  0  0  0  0  0  0  0
  1  9  1  0  0  0  0
  2 15  1  0  0  0  0
  3  1  1  0  0  0  0
  4  3  1  0  0  0  0
  5  3  1  0  0  0  0
  5  7  2  0  0  0  0
  6  5  1  0  0  0  0
  7  8  1  0  0  0  0
  7  9  1  0  0  0  0
  9 10  2  0  0  0  0
 10  2  1  0  0  0  0
 10 11  1  0  0  0  0
 11 13  1  0  0  0  0
 11 14  1  0  0  0  0
 12 11  1  0  0  0  0
 15 16  1  0  0  0  0
 16 18  2  0  0  0  0
 16 17  1  0  0  0  0
 18 19  1  0  0  0  0
 20 21  1  0  0  0  0
 20 18  1  0  0  0  0
 22 20  2  0  0  0  0
 23 22  1  0  0  0  0
 23 15  2  0  0  0  0
 24 27  1  0  0  0  0
 24 22  1  0  0  0  0
 25 24  1  0  0  0  0
 26 24  1  0  0  0  0
 28 23  1  0  0  0  0
 29 28  1  0  0  0  0
 30 28  1  0  0  0  0
 31 28  1  0  0  0  0
M  END
