1,3
 OpenBabel05122313053D

 21 22  0  0  0  0  0  0  0  0999 V2000
   -0.3299    1.6203    0.2030 N   0  0  0  0  0  2  0  0  0  0  0  0
    3.8808   -0.7372    0.0874 C   0  0  0  0  0  0  0  0  0  0  0  0
    1.0785   -0.6271    0.2111 N   0  0  0  0  0  2  0  0  0  0  0  0
    1.8048    0.5273    0.1033 C   0  0  0  0  0  0  0  0  0  0  0  0
    3.2066    0.4968    0.0412 C   0  0  0  0  0  0  0  0  0  0  0  0
    3.7842    1.4249   -0.0476 H   0  0  0  0  0  0  0  0  0  0  0  0
   -0.6085    4.0128    0.1986 C   0  0  0  0  0  0  0  0  0  0  0  0
   -1.2959    4.8692    0.2360 H   0  0  0  0  0  0  0  0  0  0  0  0
    1.6006    3.0590    0.0466 C   0  0  0  0  0  0  0  0  0  0  0  0
    2.6893    3.1734   -0.0342 H   0  0  0  0  0  0  0  0  0  0  0  0
    1.0226    1.7771    0.1030 C   0  0  0  0  0  0  0  0  0  0  0  0
    3.1144   -1.9203    0.2058 C   0  0  0  0  0  0  0  0  0  0  0  0
    3.5960   -2.9060    0.2448 H   0  0  0  0  0  0  0  0  0  0  0  0
    1.7275   -1.8126    0.2634 C   0  0  0  0  0  0  0  0  0  0  0  0
    1.0929   -2.7063    0.3428 H   0  0  0  0  0  0  0  0  0  0  0  0
    0.7796    4.1887    0.0890 C   0  0  0  0  0  0  0  0  0  0  0  0
    1.2183    5.1957    0.0382 H   0  0  0  0  0  0  0  0  0  0  0  0
   -1.1199    2.7141    0.2526 C   0  0  0  0  0  0  0  0  0  0  0  0
   -2.2001    2.5251    0.3263 H   0  0  0  0  0  0  0  0  0  0  0  0
    6.4832   -0.8236   -0.0306 N   0  0  0  0  0  0  0  0  0  0  0  0
    5.3112   -0.7859    0.0205 C   0  0  0  0  0  0  0  0  0  0  0  0
  1 18  1  0  0  0  0
  2 12  1  0  0  0  0
  3 14  1  0  0  0  0
  4  3  1  0  0  0  0
  5  2  2  0  0  0  0
  5  4  1  0  0  0  0
  6  5  1  0  0  0  0
  7  8  1  0  0  0  0
  7 18  2  0  0  0  0
  9 16  2  0  0  0  0
  9 11  1  0  0  0  0
 10  9  1  0  0  0  0
 11  4  2  0  0  0  0
 11  1  1  0  0  0  0
 12 13  1  0  0  0  0
 12 14  2  0  0  0  0
 14 15  1  0  0  0  0
 16  7  1  0  0  0  0
 17 16  1  0  0  0  0
 18 19  1  0  0  0  0
 20 21  3  0  0  0  0
 21  2  1  0  0  0  0
M  END
