1,3
 OpenBabel05122313053D

 60 65  0  0  1  0  0  0  0  0999 V2000
   -1.8425   -0.7551   -0.1268 N   0  0  0  0  0  2  0  0  0  0  0  0
   -3.6219    0.1992    0.8454 N   0  0  0  0  0  0  0  0  0  0  0  0
    1.8443   -0.6436   -0.2776 N   0  0  0  0  0  2  0  0  0  0  0  0
    3.5745    0.7807   -0.2998 N   0  0  0  0  0  0  0  0  0  0  0  0
   -2.2449    0.0914    0.8319 C   0  0  1  0  0  3  0  0  0  0  0  0
   -4.1116   -0.6161   -0.1728 C   0  0  0  0  0  0  0  0  0  0  0  0
   -2.9731   -1.2111   -0.7839 C   0  0  0  0  0  0  0  0  0  0  0  0
   -3.1158   -2.1044   -1.8598 C   0  0  0  0  0  0  0  0  0  0  0  0
   -2.2217   -2.5261   -2.3374 H   0  0  0  0  0  0  0  0  0  0  0  0
   -4.4161   -2.3798   -2.2946 C   0  0  0  0  0  0  0  0  0  0  0  0
   -4.5670   -3.0701   -3.1378 H   0  0  0  0  0  0  0  0  0  0  0  0
   -5.5474   -1.7875   -1.6798 C   0  0  0  0  0  0  0  0  0  0  0  0
   -6.5530   -2.0341   -2.0525 H   0  0  0  0  0  0  0  0  0  0  0  0
   -5.4177   -0.8924   -0.6099 C   0  0  0  0  0  0  0  0  0  0  0  0
   -6.2994   -0.4360   -0.1376 H   0  0  0  0  0  0  0  0  0  0  0  0
   -4.4255    1.1345    1.6250 C   0  0  0  0  0  0  0  0  0  0  0  0
   -3.8113    1.4644    2.4838 H   0  0  0  0  0  0  0  0  0  0  0  0
   -5.2885    0.5729    2.0408 H   0  0  0  0  0  0  0  0  0  0  0  0
   -4.9032    2.3382    0.8123 C   0  0  0  0  0  0  0  0  0  0  0  0
   -4.0445    2.9314    0.4404 H   0  0  0  0  0  0  0  0  0  0  0  0
   -5.5292    2.9991    1.4438 H   0  0  0  0  0  0  0  0  0  0  0  0
   -5.5044    2.0255   -0.0637 H   0  0  0  0  0  0  0  0  0  0  0  0
   -1.3106    0.6945    1.7986 C   0  0  0  0  0  0  0  0  0  0  0  0
   -0.1161    1.3300    1.3481 C   0  0  0  0  0  0  0  0  0  0  0  0
    0.8834    1.6165    2.3017 C   0  0  0  0  0  0  0  0  0  0  0  0
    1.8034    2.1181    1.9661 H   0  0  0  0  0  0  0  0  0  0  0  0
    0.7097    1.3152    3.6581 C   0  0  0  0  0  0  0  0  0  0  0  0
    1.5106    1.5478    4.3759 H   0  0  0  0  0  0  0  0  0  0  0  0
   -0.4870    0.7337    4.0999 C   0  0  0  0  0  0  0  0  0  0  0  0
   -0.6290    0.4873    5.1623 H   0  0  0  0  0  0  0  0  0  0  0  0
   -1.4832    0.4159    3.1691 C   0  0  0  0  0  0  0  0  0  0  0  0
   -2.3759   -0.1390    3.4932 H   0  0  0  0  0  0  0  0  0  0  0  0
    2.2087    0.6364   -0.4399 C   0  0  1  0  0  3  0  0  0  0  0  0
    2.9918   -1.3727   -0.0102 C   0  0  0  0  0  0  0  0  0  0  0  0
    4.0996   -0.4797   -0.0258 C   0  0  0  0  0  0  0  0  0  0  0  0
    5.4100   -0.9168    0.2301 C   0  0  0  0  0  0  0  0  0  0  0  0
    6.2658   -0.2267    0.2278 H   0  0  0  0  0  0  0  0  0  0  0  0
    5.5783   -2.2829    0.4909 C   0  0  0  0  0  0  0  0  0  0  0  0
    6.5885   -2.6684    0.6950 H   0  0  0  0  0  0  0  0  0  0  0  0
    4.4797   -3.1780    0.5001 C   0  0  0  0  0  0  0  0  0  0  0  0
    4.6598   -4.2419    0.7152 H   0  0  0  0  0  0  0  0  0  0  0  0
    3.1742   -2.7415    0.2538 C   0  0  0  0  0  0  0  0  0  0  0  0
    2.3025   -3.4075    0.2952 H   0  0  0  0  0  0  0  0  0  0  0  0
    4.3378    2.0214   -0.3456 C   0  0  0  0  0  0  0  0  0  0  0  0
    4.9802    2.0546    0.5604 H   0  0  0  0  0  0  0  0  0  0  0  0
    3.6117    2.8539   -0.2611 H   0  0  0  0  0  0  0  0  0  0  0  0
    5.1878    2.1675   -1.6074 C   0  0  0  0  0  0  0  0  0  0  0  0
    5.9095    1.3337   -1.7091 H   0  0  0  0  0  0  0  0  0  0  0  0
    5.7602    3.1155   -1.5714 H   0  0  0  0  0  0  0  0  0  0  0  0
    4.5570    2.1802   -2.5179 H   0  0  0  0  0  0  0  0  0  0  0  0
    1.2528    1.7030   -0.7851 C   0  0  0  0  0  0  0  0  0  0  0  0
    0.0497    1.8583   -0.0349 C   0  0  0  0  0  0  0  0  0  0  0  0
   -0.9562    2.6939   -0.5623 C   0  0  0  0  0  0  0  0  0  0  0  0
   -1.8799    2.8329    0.0180 H   0  0  0  0  0  0  0  0  0  0  0  0
   -0.7839    3.3769   -1.7725 C   0  0  0  0  0  0  0  0  0  0  0  0
   -1.5913    4.0177   -2.1579 H   0  0  0  0  0  0  0  0  0  0  0  0
    0.4213    3.2580   -2.4783 C   0  0  0  0  0  0  0  0  0  0  0  0
    0.5653    3.7881   -3.4311 H   0  0  0  0  0  0  0  0  0  0  0  0
    1.4264    2.4163   -1.9871 C   0  0  0  0  0  0  0  0  0  0  0  0
    2.3308    2.2400   -2.5866 H   0  0  0  0  0  0  0  0  0  0  0  0
  1  5  1  0  0  0  0
  2 16  1  0  0  0  0
  3 34  1  0  0  0  0
  4 35  1  0  0  0  0
  5  2  1  0  0  0  0
  5 23  1  1  0  0  0
  6  2  1  0  0  0  0
  7  6  2  0  0  0  0
  7  1  1  0  0  0  0
  8  7  1  0  0  0  0
  9  8  1  0  0  0  0
 10  8  2  0  0  0  0
 10 12  1  0  0  0  0
 11 10  1  0  0  0  0
 12 14  2  0  0  0  0
 13 12  1  0  0  0  0
 14  6  1  0  0  0  0
 14 15  1  0  0  0  0
 16 18  1  0  0  0  0
 16 17  1  0  0  0  0
 19 21  1  0  0  0  0
 19 16  1  0  0  0  0
 20 19  1  0  0  0  0
 22 19  1  0  0  0  0
 23 31  1  0  0  0  0
 24 23  2  0  0  0  0
 24 25  1  0  0  0  0
 25 27  2  0  0  0  0
 26 25  1  0  0  0  0
 27 29  1  0  0  0  0
 27 28  1  0  0  0  0
 29 30  1  0  0  0  0
 31 32  1  0  0  0  0
 31 29  2  0  0  0  0
 33 51  1  6  0  0  0
 33  4  1  0  0  0  0
 33  3  1  0  0  0  0
 34 42  1  0  0  0  0
 35 34  2  0  0  0  0
 35 36  1  0  0  0  0
 36 38  2  0  0  0  0
 37 36  1  0  0  0  0
 38 40  1  0  0  0  0
 38 39  1  0  0  0  0
 40 41  1  0  0  0  0
 42 43  1  0  0  0  0
 42 40  2  0  0  0  0
 44  4  1  0  0  0  0
 44 46  1  0  0  0  0
 44 45  1  0  0  0  0
 47 49  1  0  0  0  0
 47 44  1  0  0  0  0
 48 47  1  0  0  0  0
 50 47  1  0  0  0  0
 51 52  1  0  0  0  0
 52 24  1  0  0  0  0
 53 52  2  0  0  0  0
 53 54  1  0  0  0  0
 55 53  1  0  0  0  0
 56 55  1  0  0  0  0
 57 59  1  0  0  0  0
 57 55  2  0  0  0  0
 58 57  1  0  0  0  0
 59 51  2  0  0  0  0
 60 59  1  0  0  0  0
M  END
