5,7
 OpenBabel05122313053D

 56 63  0  0  1  0  0  0  0  0999 V2000
   -3.9978   -1.4438   -0.3693 O   0  0  0  0  0  0  0  0  0  0  0  0
   -5.7865   -0.0564   -0.1416 O   0  0  0  0  0  0  0  0  0  0  0  0
    3.8338   -1.7278   -0.1225 O   0  0  0  0  0  0  0  0  0  0  0  0
    5.4906   -0.1603    0.1573 O   0  0  0  0  0  0  0  0  0  0  0  0
   -1.4357    0.4977    0.1986 N   0  0  0  0  0  2  0  0  0  0  0  0
   -3.2913    1.6534    0.7071 N   0  0  0  0  0  0  0  0  0  0  0  0
    1.4418    0.4525   -0.5731 N   0  0  0  0  0  2  0  0  0  0  0  0
    3.3356    1.5454   -1.0749 N   0  0  0  0  0  0  0  0  0  0  0  0
   -2.7241    0.4154    0.5428 C   0  0  1  0  0  3  0  0  0  0  0  0
   -3.7265   -0.6723    0.7888 C   0  0  1  0  0  0  0  0  0  0  0  0
   -5.0514    0.1422    1.0478 C   0  0  1  0  0  0  0  0  0  0  0  0
   -4.6718    1.6341    1.1693 C   0  0  0  0  0  0  0  0  0  0  0  0
   -2.3294    2.6116    0.4615 C   0  0  0  0  0  0  0  0  0  0  0  0
   -2.3259    4.0281    0.4840 C   0  0  0  0  0  0  0  0  0  0  0  0
   -1.1338    4.6688    0.1695 C   0  0  0  0  0  0  0  0  0  0  0  0
    0.0654    3.9533   -0.1649 C   0  0  0  0  0  0  0  0  0  0  0  0
    1.2890    4.6299   -0.4916 C   0  0  0  0  0  0  0  0  0  0  0  0
    2.4568    3.9517   -0.8196 C   0  0  0  0  0  0  0  0  0  0  0  0
    2.4089    2.5360   -0.8200 C   0  0  0  0  0  0  0  0  0  0  0  0
    4.7427    1.4675   -1.4459 C   0  0  0  0  0  0  0  0  0  0  0  0
    5.0626   -0.0154   -1.1842 C   0  0  2  0  0  0  0  0  0  0  0  0
    3.7050   -0.7911   -1.1669 C   0  0  2  0  0  0  0  0  0  0  0  0
    2.7268    0.3272   -0.9133 C   0  0  1  0  0  3  0  0  0  0  0  0
    1.2260    1.8245   -0.5024 C   0  0  0  0  0  0  0  0  0  0  0  0
    0.0398    2.5150   -0.1742 C   0  0  0  0  0  0  0  0  0  0  0  0
   -1.1714    1.8617    0.1407 C   0  0  0  0  0  0  0  0  0  0  0  0
   -5.5553   -1.2555   -2.1975 C   0  0  0  0  0  0  0  0  0  0  0  0
   -5.4057   -1.3190   -0.6896 C   0  0  0  0  0  0  0  0  0  0  0  0
   -6.1838   -2.4647   -0.0418 C   0  0  0  0  0  0  0  0  0  0  0  0
    4.6221   -1.2158    2.1148 C   0  0  0  0  0  0  0  0  0  0  0  0
    5.0186   -1.4128    0.6598 C   0  0  0  0  0  0  0  0  0  0  0  0
    6.0462   -2.5196    0.4435 C   0  0  0  0  0  0  0  0  0  0  0  0
    6.3116   -2.6002   -0.6285 H   0  0  0  0  0  0  0  0  0  0  0  0
    5.6344   -3.4937    0.7697 H   0  0  0  0  0  0  0  0  0  0  0  0
    6.9661   -2.3087    1.0218 H   0  0  0  0  0  0  0  0  0  0  0  0
    5.5083   -0.9495    2.7220 H   0  0  0  0  0  0  0  0  0  0  0  0
    4.1817   -2.1491    2.5145 H   0  0  0  0  0  0  0  0  0  0  0  0
    3.8778   -0.3997    2.1808 H   0  0  0  0  0  0  0  0  0  0  0  0
   -5.8390   -3.4359   -0.4449 H   0  0  0  0  0  0  0  0  0  0  0  0
   -7.2660   -2.3575   -0.2481 H   0  0  0  0  0  0  0  0  0  0  0  0
   -6.0380   -2.4785    1.0565 H   0  0  0  0  0  0  0  0  0  0  0  0
   -4.9795   -0.3956   -2.5877 H   0  0  0  0  0  0  0  0  0  0  0  0
   -6.6201   -1.1316   -2.4712 H   0  0  0  0  0  0  0  0  0  0  0  0
   -5.1787   -2.1889   -2.6565 H   0  0  0  0  0  0  0  0  0  0  0  0
   -4.7374    2.0048    2.2129 H   0  0  0  0  0  0  0  0  0  0  0  0
   -5.3294    2.2483    0.5234 H   0  0  0  0  0  0  0  0  0  0  0  0
    4.8884    1.7459   -2.5102 H   0  0  0  0  0  0  0  0  0  0  0  0
    5.3694    2.1223   -0.8095 H   0  0  0  0  0  0  0  0  0  0  0  0
    3.4808   -1.3222   -2.1174 H   0  0  0  0  0  0  0  0  0  0  0  0
   -3.4294   -1.3233    1.6409 H   0  0  0  0  0  0  0  0  0  0  0  0
   -5.6001   -0.2166    1.9461 H   0  0  0  0  0  0  0  0  0  0  0  0
    5.7944   -0.4281   -1.9129 H   0  0  0  0  0  0  0  0  0  0  0  0
   -1.0975    5.7684    0.1731 H   0  0  0  0  0  0  0  0  0  0  0  0
    3.3793    4.4954   -1.0665 H   0  0  0  0  0  0  0  0  0  0  0  0
    1.2919    5.7300   -0.4805 H   0  0  0  0  0  0  0  0  0  0  0  0
   -3.2293    4.6005    0.7366 H   0  0  0  0  0  0  0  0  0  0  0  0
  1 10  1  0  0  0  0
  2 11  1  0  0  0  0
  3 31  1  0  0  0  0
  4 31  1  0  0  0  0
  6 12  1  0  0  0  0
  7 24  1  0  0  0  0
  8 23  1  0  0  0  0
  8 19  1  0  0  0  0
  9  5  1  6  0  0  0
  9  6  1  0  0  0  0
  9 10  1  0  0  0  0
 10 11  1  0  0  0  0
 10 50  1  1  0  0  0
 11 12  1  0  0  0  0
 11 51  1  1  0  0  0
 12 45  1  0  0  0  0
 13 14  1  0  0  0  0
 13  6  1  0  0  0  0
 14 56  1  0  0  0  0
 15 53  1  0  0  0  0
 15 14  2  0  0  0  0
 16 15  1  0  0  0  0
 17 55  1  0  0  0  0
 17 16  2  0  0  0  0
 18 17  1  0  0  0  0
 19 18  2  0  0  0  0
 19 24  1  0  0  0  0
 20 21  1  0  0  0  0
 20  8  1  0  0  0  0
 20 48  1  0  0  0  0
 21 52  1  6  0  0  0
 21 22  1  0  0  0  0
 21  4  1  0  0  0  0
 22 49  1  6  0  0  0
 22 23  1  0  0  0  0
 22  3  1  0  0  0  0
 23  7  1  1  0  0  0
 24 25  2  0  0  0  0
 25 16  1  0  0  0  0
 25 26  1  0  0  0  0
 26  5  1  0  0  0  0
 26 13  2  0  0  0  0
 27 28  1  0  0  0  0
 28  1  1  0  0  0  0
 28  2  1  0  0  0  0
 28 29  1  0  0  0  0
 29 41  1  0  0  0  0
 30 38  1  0  0  0  0
 30 37  1  0  0  0  0
 30 36  1  0  0  0  0
 31 30  1  0  0  0  0
 32 31  1  0  0  0  0
 32 34  1  0  0  0  0
 32 35  1  0  0  0  0
 33 32  1  0  0  0  0
 39 29  1  0  0  0  0
 40 29  1  0  0  0  0
 42 27  1  0  0  0  0
 43 27  1  0  0  0  0
 44 27  1  0  0  0  0
 46 12  1  0  0  0  0
 47 20  1  0  0  0  0
 54 18  1  0  0  0  0
M  END
