1,4
 OpenBabel05122313053D

 41 43  0  0  1  0  0  0  0  0999 V2000
   -2.0566   -0.8045    0.1755 N   0  0  0  0  0  2  0  0  0  0  0  0
    0.0030    0.2651   -1.2472 N   0  0  0  0  0  0  0  0  0  0  0  0
    2.3668   -0.2597   -0.9774 C   0  0  2  0  0  3  0  0  0  0  0  0
    2.0271   -0.8733    0.1731 N   0  0  0  0  0  2  0  0  0  0  0  0
    0.0261    1.5784   -0.6264 C   0  0  0  0  0  0  0  0  0  0  0  0
    0.0276    1.6984    0.7755 C   0  0  0  0  0  0  0  0  0  0  0  0
    0.0106    0.7966    1.4099 H   0  0  0  0  0  0  0  0  0  0  0  0
   -2.3768   -0.1799   -0.9747 C   0  0  2  0  0  3  0  0  0  0  0  0
    0.0474    2.9682    1.3679 C   0  0  0  0  0  0  0  0  0  0  0  0
    0.0449    3.0429    2.4670 H   0  0  0  0  0  0  0  0  0  0  0  0
   -3.6829    0.2683   -1.2193 C   0  0  0  0  0  0  0  0  0  0  0  0
   -3.9171    0.7895   -2.1594 H   0  0  0  0  0  0  0  0  0  0  0  0
    1.2357   -0.0757   -1.9650 C   0  0  0  0  0  0  0  0  0  0  0  0
    1.5187    0.6648   -2.7479 H   0  0  0  0  0  0  0  0  0  0  0  0
    1.0576   -1.0669   -2.4434 H   0  0  0  0  0  0  0  0  0  0  0  0
   -2.9875   -1.0110    1.1208 C   0  0  0  0  0  0  0  0  0  0  0  0
   -2.6160   -1.5023    2.0372 H   0  0  0  0  0  0  0  0  0  0  0  0
   -4.3167   -0.6031    0.9474 C   0  0  0  0  0  0  0  0  0  0  0  0
   -5.0571   -0.7851    1.7393 H   0  0  0  0  0  0  0  0  0  0  0  0
    3.6868    0.1450   -1.2232 C   0  0  0  0  0  0  0  0  0  0  0  0
    3.9373    0.6581   -2.1634 H   0  0  0  0  0  0  0  0  0  0  0  0
   -1.2414   -0.0338   -1.9635 C   0  0  0  0  0  0  0  0  0  0  0  0
   -1.0974   -1.0302   -2.4425 H   0  0  0  0  0  0  0  0  0  0  0  0
   -1.5003    0.7161   -2.7459 H   0  0  0  0  0  0  0  0  0  0  0  0
    2.9514   -1.1107    1.1176 C   0  0  0  0  0  0  0  0  0  0  0  0
    2.5646   -1.5894    2.0343 H   0  0  0  0  0  0  0  0  0  0  0  0
    0.0436    2.7440   -1.4143 C   0  0  0  0  0  0  0  0  0  0  0  0
    0.0383    2.6648   -2.5129 H   0  0  0  0  0  0  0  0  0  0  0  0
   -4.6674    0.0461   -0.2455 C   0  0  0  0  0  0  0  0  0  0  0  0
   -5.6999    0.3886   -0.4130 H   0  0  0  0  0  0  0  0  0  0  0  0
    4.6642   -0.1098   -0.2502 C   0  0  0  0  0  0  0  0  0  0  0  0
    5.7074    0.1982   -0.4186 H   0  0  0  0  0  0  0  0  0  0  0  0
    4.2932   -0.7470    0.9430 C   0  0  0  0  0  0  0  0  0  0  0  0
    5.0280   -0.9535    1.7343 H   0  0  0  0  0  0  0  0  0  0  0  0
    0.0679    4.1451    0.5922 C   0  0  0  0  0  0  0  0  0  0  0  0
    0.1160    5.5027    1.2468 C   0  0  0  0  0  0  0  0  0  0  0  0
    1.1385    5.7292    1.6183 H   0  0  0  0  0  0  0  0  0  0  0  0
   -0.5621    5.5558    2.1221 H   0  0  0  0  0  0  0  0  0  0  0  0
   -0.1657    6.3087    0.5417 H   0  0  0  0  0  0  0  0  0  0  0  0
    0.0634    4.0087   -0.8109 C   0  0  0  0  0  0  0  0  0  0  0  0
    0.0736    4.9114   -1.4423 H   0  0  0  0  0  0  0  0  0  0  0  0
  1 16  1  0  0  0  0
  2  5  1  0  0  0  0
  3 13  1  6  0  0  0
  3  4  1  0  0  0  0
  4 25  1  0  0  0  0
  5  6  1  0  0  0  0
  6  9  2  0  0  0  0
  6  7  1  0  0  0  0
  8 22  1  6  0  0  0
  8  1  1  0  0  0  0
  9 10  1  0  0  0  0
 11  8  1  0  0  0  0
 11 29  2  0  0  0  0
 12 11  1  0  0  0  0
 13  2  1  0  0  0  0
 14 13  1  0  0  0  0
 15 13  1  0  0  0  0
 16 17  1  0  0  0  0
 18 16  2  0  0  0  0
 18 19  1  0  0  0  0
 20  3  1  0  0  0  0
 20 31  2  0  0  0  0
 21 20  1  0  0  0  0
 22  2  1  0  0  0  0
 23 22  1  0  0  0  0
 24 22  1  0  0  0  0
 25 26  1  0  0  0  0
 27 40  1  0  0  0  0
 27  5  2  0  0  0  0
 28 27  1  0  0  0  0
 29 18  1  0  0  0  0
 30 29  1  0  0  0  0
 31 33  1  0  0  0  0
 32 31  1  0  0  0  0
 33 25  2  0  0  0  0
 33 34  1  0  0  0  0
 35 36  1  0  0  0  0
 35  9  1  0  0  0  0
 36 37  1  0  0  0  0
 36 38  1  0  0  0  0
 39 36  1  0  0  0  0
 40 35  2  0  0  0  0
 41 40  1  0  0  0  0
M  END
