1,2
 OpenBabel05122313053D

 50 54  0  0  1  0  0  0  0  0999 V2000
    2.3714   -2.1438    0.2640 N   0  0  0  0  0  2  0  0  0  0  0  0
    0.9781    0.0901   -0.2832 N   0  0  0  0  0  2  0  0  0  0  0  0
   -0.9581   -0.6635    0.4933 N   0  0  0  0  0  0  0  0  0  0  0  0
   -2.6928   -2.9500   -0.7501 N   0  0  0  0  0  0  0  0  0  0  0  0
    3.1674   -3.2187    0.2423 C   0  0  0  0  0  3  0  0  0  0  0  0
    4.2500   -3.0107    0.2579 H   0  0  0  0  0  0  0  0  0  0  0  0
    2.6557   -4.5234    0.1847 C   0  0  0  0  0  0  0  0  0  0  0  0
    3.3376   -5.3854    0.1862 H   0  0  0  0  0  0  0  0  0  0  0  0
    1.2656   -4.6875    0.0935 C   0  0  0  0  0  0  0  0  0  0  0  0
    0.8285   -5.6939    0.0071 H   0  0  0  0  0  0  0  0  0  0  0  0
    0.4289   -3.5625    0.0715 C   0  0  0  0  0  0  0  0  0  0  0  0
   -0.6543   -3.6529   -0.1132 H   0  0  0  0  0  0  0  0  0  0  0  0
    1.0228   -2.2893    0.1838 C   0  0  0  0  0  0  0  0  0  0  0  0
    0.3231   -0.9987    0.1293 C   0  0  2  0  0  3  0  0  0  0  0  0
   -1.9820   -1.5250    1.0897 C   0  0  0  0  0  0  0  0  0  0  0  0
   -2.4491   -0.9691    1.9228 H   0  0  0  0  0  0  0  0  0  0  0  0
   -1.4702   -2.4069    1.5156 H   0  0  0  0  0  0  0  0  0  0  0  0
   -3.0448   -1.9667    0.0988 C   0  0  0  0  0  0  0  0  0  0  0  0
   -4.3140   -1.3595    0.0712 C   0  0  0  0  0  0  0  0  0  0  0  0
   -4.5625   -0.5564    0.7805 H   0  0  0  0  0  0  0  0  0  0  0  0
   -5.2426   -1.7906   -0.8865 C   0  0  0  0  0  0  0  0  0  0  0  0
   -6.2420   -1.3326   -0.9366 H   0  0  0  0  0  0  0  0  0  0  0  0
   -4.8730   -2.8069   -1.7780 C   0  0  0  0  0  0  0  0  0  0  0  0
   -5.5677   -3.1741   -2.5476 H   0  0  0  0  0  0  0  0  0  0  0  0
   -3.5852   -3.3558   -1.6648 C   0  0  0  0  0  0  0  0  0  0  0  0
   -3.2589   -4.1635   -2.3431 H   0  0  0  0  0  0  0  0  0  0  0  0
   -1.1114    0.7060    0.2673 C   0  0  0  0  0  0  0  0  0  0  0  0
   -2.3972    1.3945    0.5001 C   0  0  0  0  0  0  0  0  0  0  0  0
   -3.1832    1.8097   -0.5971 C   0  0  0  0  0  0  0  0  0  0  0  0
   -2.8105    1.6352   -1.6172 H   0  0  0  0  0  0  0  0  0  0  0  0
   -4.4222    2.4302   -0.3876 C   0  0  0  0  0  0  0  0  0  0  0  0
   -5.0251    2.7507   -1.2506 H   0  0  0  0  0  0  0  0  0  0  0  0
   -4.8957    2.6383    0.9187 C   0  0  0  0  0  0  0  0  0  0  0  0
   -5.8703    3.1228    1.0818 H   0  0  0  0  0  0  0  0  0  0  0  0
   -4.1158    2.2406    2.0169 C   0  0  0  0  0  0  0  0  0  0  0  0
   -4.4729    2.4204    3.0422 H   0  0  0  0  0  0  0  0  0  0  0  0
   -2.8698    1.6290    1.8104 C   0  0  0  0  0  0  0  0  0  0  0  0
   -2.2416    1.3467    2.6694 H   0  0  0  0  0  0  0  0  0  0  0  0
    0.1261    1.1635   -0.2128 C   0  0  0  0  0  0  0  0  0  0  0  0
    0.5742    2.5131   -0.5834 C   0  0  0  0  0  0  0  0  0  0  0  0
    1.7946    2.6702   -1.2824 C   0  0  0  0  0  0  0  0  0  0  0  0
    2.3969    1.7901   -1.5574 H   0  0  0  0  0  0  0  0  0  0  0  0
    2.2540    3.9468   -1.6272 C   0  0  0  0  0  0  0  0  0  0  0  0
    3.2108    4.0451   -2.1616 H   0  0  0  0  0  0  0  0  0  0  0  0
    1.5077    5.0871   -1.2901 C   0  0  0  0  0  0  0  0  0  0  0  0
    1.8725    6.0894   -1.5616 H   0  0  0  0  0  0  0  0  0  0  0  0
    0.2972    4.9409   -0.5937 C   0  0  0  0  0  0  0  0  0  0  0  0
   -0.2886    5.8289   -0.3113 H   0  0  0  0  0  0  0  0  0  0  0  0
   -0.1658    3.6675   -0.2392 C   0  0  0  0  0  0  0  0  0  0  0  0
   -1.1004    3.5723    0.3299 H   0  0  0  0  0  0  0  0  0  0  0  0
  2 39  1  0  0  0  0
  2 14  1  0  0  0  0
  3 15  1  0  0  0  0
  4 18  1  0  0  0  0
  5  6  1  0  0  0  0
  5  1  1  0  0  0  0
  7  8  1  0  0  0  0
  7  5  1  0  0  0  0
  9  7  2  0  0  0  0
 10  9  1  0  0  0  0
 11  9  1  0  0  0  0
 11 13  2  0  0  0  0
 12 11  1  0  0  0  0
 13  1  1  0  0  0  0
 14 13  1  1  0  0  0
 14  3  1  0  0  0  0
 15 17  1  0  0  0  0
 15 16  1  0  0  0  0
 18 15  1  0  0  0  0
 19 18  2  0  0  0  0
 19 20  1  0  0  0  0
 21 19  1  0  0  0  0
 22 21  1  0  0  0  0
 23 25  1  0  0  0  0
 23 21  2  0  0  0  0
 24 23  1  0  0  0  0
 25  4  2  0  0  0  0
 26 25  1  0  0  0  0
 27  3  1  0  0  0  0
 27 28  1  0  0  0  0
 28 37  1  0  0  0  0
 29 31  1  0  0  0  0
 29 28  2  0  0  0  0
 30 29  1  0  0  0  0
 31 33  2  0  0  0  0
 32 31  1  0  0  0  0
 33 34  1  0  0  0  0
 33 35  1  0  0  0  0
 35 36  1  0  0  0  0
 37 35  2  0  0  0  0
 37 38  1  0  0  0  0
 39 27  2  0  0  0  0
 40 49  1  0  0  0  0
 40 39  1  0  0  0  0
 41 40  2  0  0  0  0
 42 41  1  0  0  0  0
 43 45  2  0  0  0  0
 43 41  1  0  0  0  0
 44 43  1  0  0  0  0
 45 47  1  0  0  0  0
 46 45  1  0  0  0  0
 47 48  1  0  0  0  0
 47 49  2  0  0  0  0
 49 50  1  0  0  0  0
M  END
