6,7
 OpenBabel05122313053D

 28 29  0  0  1  0  0  0  0  0999 V2000
    3.8123   -1.6389    1.1251 O   0  0  0  0  0  0  0  0  0  0  0  0
    2.4604   -0.2294    2.3293 N   0  0  0  0  0  0  0  0  0  0  0  0
    2.4729   -0.8668    3.1272 H   0  0  0  0  0  0  0  0  0  0  0  0
    1.7697    0.5407    2.3082 H   0  0  0  0  0  0  0  0  0  0  0  0
    1.4785   -1.2477   -1.0165 N   0  0  0  0  0  0  0  0  0  0  0  0
    0.3447   -0.6784   -0.6141 N   0  0  0  0  0  2  0  0  0  0  0  0
   -2.0969    0.1139    0.0231 N   0  0  0  0  0  2  0  0  0  0  0  0
    3.1491   -0.6032    1.2210 C   0  0  0  0  0  0  0  0  0  0  0  0
    3.0273    0.3619    0.0352 C   0  0  0  0  0  0  0  0  0  0  0  0
    4.0145    0.8405   -0.1300 H   0  0  0  0  0  0  0  0  0  0  0  0
    2.3036    1.1808    0.2214 H   0  0  0  0  0  0  0  0  0  0  0  0
    2.6689   -0.4187   -1.2288 C   0  0  0  0  0  0  0  0  0  0  0  0
    2.4500    0.2740   -2.0676 H   0  0  0  0  0  0  0  0  0  0  0  0
    3.4860   -1.1133   -1.4949 H   0  0  0  0  0  0  0  0  0  0  0  0
    1.3274   -2.5953   -1.1535 C   0  0  0  0  0  3  0  0  0  0  0  0
    2.1706   -3.2283   -1.4475 H   0  0  0  0  0  0  0  0  0  0  0  0
    0.0017   -2.9006   -0.8390 C   0  0  0  0  0  0  0  0  0  0  0  0
   -0.4653   -3.8898   -0.8525 H   0  0  0  0  0  0  0  0  0  0  0  0
   -0.5829   -1.6518   -0.5074 C   0  0  0  0  0  0  0  0  0  0  0  0
   -1.9277   -1.2303   -0.1014 C   0  0  1  0  0  3  0  0  0  0  0  0
   -2.9829   -2.1236    0.1603 C   0  0  0  0  0  0  0  0  0  0  0  0
   -2.8237   -3.2059    0.0563 H   0  0  0  0  0  0  0  0  0  0  0  0
   -4.2211   -1.6095    0.5620 C   0  0  0  0  0  0  0  0  0  0  0  0
   -5.0600   -2.2898    0.7715 H   0  0  0  0  0  0  0  0  0  0  0  0
   -4.3765   -0.2218    0.7045 C   0  0  0  0  0  0  0  0  0  0  0  0
   -5.3301    0.2192    1.0267 H   0  0  0  0  0  0  0  0  0  0  0  0
   -3.2787    0.6030    0.4281 C   0  0  0  0  0  0  0  0  0  0  0  0
   -3.3379    1.6976    0.5387 H   0  0  0  0  0  0  0  0  0  0  0  0
  1  8  2  0  0  0  0
  2  3  1  0  0  0  0
  4  2  1  0  0  0  0
  5  6  1  0  0  0  0
  6 19  1  0  0  0  0
  7 27  1  0  0  0  0
  8  2  1  0  0  0  0
  9 11  1  0  0  0  0
  9  8  1  0  0  0  0
 10  9  1  0  0  0  0
 12  5  1  0  0  0  0
 12  9  1  0  0  0  0
 13 12  1  0  0  0  0
 14 12  1  0  0  0  0
 15  5  1  0  0  0  0
 15 17  1  0  0  0  0
 16 15  1  0  0  0  0
 17 19  2  0  0  0  0
 18 17  1  0  0  0  0
 20 19  1  1  0  0  0
 20  7  1  0  0  0  0
 20 21  1  0  0  0  0
 21 23  2  0  0  0  0
 22 21  1  0  0  0  0
 23 25  1  0  0  0  0
 23 24  1  0  0  0  0
 25 26  1  0  0  0  0
 27 28  1  0  0  0  0
 27 25  2  0  0  0  0
M  END
