4,5
 OpenBabel05122313053D

 69 75  0  0  1  0  0  0  0  0999 V2000
    0.9131   -1.1653   -0.1542 O   0  0  0  0  0  0  0  0  0  0  0  0
    0.4791    1.0909   -0.0466 O   0  0  0  0  0  0  0  0  0  0  0  0
    7.7720    0.7083    0.7520 O   0  0  0  0  0  0  0  0  0  0  0  0
   -5.9232    1.1477   -0.2191 N   0  0  0  0  0  2  0  0  0  0  0  0
   -4.1223   -0.7999   -0.2313 N   0  0  0  0  0  2  0  0  0  0  0  0
    5.3241   -0.6441    0.7236 N   0  0  0  0  0  0  0  0  0  0  0  0
    8.1342   -0.9143   -0.9626 N   0  0  0  0  0  0  0  0  0  0  0  0
   -6.8954    2.0847   -0.2476 C   0  0  0  0  0  3  0  0  0  0  0  0
   -7.9262    1.7074   -0.3063 H   0  0  0  0  0  0  0  0  0  0  0  0
   -6.6256    3.4506   -0.1921 C   0  0  0  0  0  0  0  0  0  0  0  0
   -7.4616    4.1649   -0.2134 H   0  0  0  0  0  0  0  0  0  0  0  0
   -5.2908    3.9008   -0.1010 C   0  0  0  0  0  0  0  0  0  0  0  0
   -4.2912    2.9170   -0.0815 C   0  0  0  0  0  0  0  0  0  0  0  0
   -3.2375    3.2198   -0.0150 H   0  0  0  0  0  0  0  0  0  0  0  0
   -4.6240    1.5516   -0.1377 C   0  0  0  0  0  0  0  0  0  0  0  0
   -3.6217    0.4699   -0.1486 C   0  0  2  0  0  3  0  0  0  0  0  0
   -2.2369    0.7007   -0.1135 C   0  0  0  0  0  0  0  0  0  0  0  0
   -1.8374    1.7192   -0.0460 H   0  0  0  0  0  0  0  0  0  0  0  0
   -1.3485   -0.3826   -0.1599 C   0  0  0  0  0  0  0  0  0  0  0  0
   -1.8811   -1.6838   -0.2475 C   0  0  0  0  0  0  0  0  0  0  0  0
   -1.2051   -2.5490   -0.2821 H   0  0  0  0  0  0  0  0  0  0  0  0
   -3.2641   -1.8447   -0.2804 C   0  0  0  0  0  0  0  0  0  0  0  0
   -3.7228   -2.8416   -0.3373 H   0  0  0  0  0  0  0  0  0  0  0  0
   -4.9656    5.3660   -0.0224 C   0  0  0  0  0  0  0  0  0  0  0  0
   -3.8743    5.5467   -0.0081 H   0  0  0  0  0  0  0  0  0  0  0  0
   -5.4004    5.8145    0.8950 H   0  0  0  0  0  0  0  0  0  0  0  0
   -5.3984    5.9158   -0.8832 H   0  0  0  0  0  0  0  0  0  0  0  0
    0.1405   -0.2284   -0.1203 C   0  0  0  0  0  0  0  0  0  0  0  0
    1.7802    1.5849    0.0100 C   0  0  0  0  0  0  0  0  0  0  0  0
    2.9229    0.8238    0.2249 C   0  0  0  0  0  0  0  0  0  0  0  0
    2.8871   -0.2628    0.3485 H   0  0  0  0  0  0  0  0  0  0  0  0
    4.1842    1.4779    0.2838 C   0  0  0  0  0  0  0  0  0  0  0  0
    4.2709    2.9066    0.1298 C   0  0  0  0  0  0  0  0  0  0  0  0
    3.0689    3.6390   -0.0899 C   0  0  0  0  0  0  0  0  0  0  0  0
    3.1248    4.7318   -0.2105 H   0  0  0  0  0  0  0  0  0  0  0  0
    1.8448    2.9969   -0.1504 C   0  0  0  0  0  0  0  0  0  0  0  0
    0.9116    3.5529   -0.3185 H   0  0  0  0  0  0  0  0  0  0  0  0
    5.3899    0.7265    0.5009 C   0  0  0  0  0  0  0  0  0  0  0  0
    6.6258    1.3953    0.5417 C   0  0  0  0  0  0  0  0  0  0  0  0
    6.7047    2.8074    0.4144 C   0  0  0  0  0  0  0  0  0  0  0  0
    7.6943    3.2832    0.4707 H   0  0  0  0  0  0  0  0  0  0  0  0
    5.5476    3.5406    0.2096 C   0  0  0  0  0  0  0  0  0  0  0  0
    5.6030    4.6346    0.0999 H   0  0  0  0  0  0  0  0  0  0  0  0
    6.4274   -1.3176    0.7441 C   0  0  0  0  0  0  0  0  0  0  0  0
    6.3719   -2.4007    0.9477 H   0  0  0  0  0  0  0  0  0  0  0  0
    7.7861   -0.7301    0.4296 C   0  0  2  0  0  0  0  0  0  0  0  0
    9.0215   -1.3387    1.2033 C   0  0  0  0  0  0  0  0  0  0  0  0
   10.1243   -1.1316    0.1735 C   0  0  0  0  0  0  0  0  0  0  0  0
    9.5280   -0.9328   -1.0909 C   0  0  0  0  0  0  0  0  0  0  0  0
    7.2663   -0.5121   -2.0473 C   0  0  0  0  0  0  0  0  0  0  0  0
    6.2134   -0.7260   -1.7845 H   0  0  0  0  0  0  0  0  0  0  0  0
    7.5105   -1.0955   -2.9580 H   0  0  0  0  0  0  0  0  0  0  0  0
    7.3584    0.5717   -2.2911 H   0  0  0  0  0  0  0  0  0  0  0  0
    8.8448   -2.8596    1.4115 C   0  0  0  0  0  0  0  0  0  0  0  0
    8.0705   -3.0831    2.1732 H   0  0  0  0  0  0  0  0  0  0  0  0
    9.8021   -3.2878    1.7666 H   0  0  0  0  0  0  0  0  0  0  0  0
    8.5769   -3.3711    0.4662 H   0  0  0  0  0  0  0  0  0  0  0  0
    9.2719   -0.6503    2.5483 C   0  0  0  0  0  0  0  0  0  0  0  0
    8.3957   -0.7604    3.2188 H   0  0  0  0  0  0  0  0  0  0  0  0
    9.4802    0.4268    2.4207 H   0  0  0  0  0  0  0  0  0  0  0  0
   10.1405   -1.1207    3.0510 H   0  0  0  0  0  0  0  0  0  0  0  0
   11.5103   -1.1800    0.2982 C   0  0  0  0  0  0  0  0  0  0  0  0
   11.9791   -1.3327    1.2829 H   0  0  0  0  0  0  0  0  0  0  0  0
   12.3095   -1.0289   -0.8561 C   0  0  0  0  0  0  0  0  0  0  0  0
   13.4057   -1.0598   -0.7722 H   0  0  0  0  0  0  0  0  0  0  0  0
   11.7074   -0.8351   -2.1087 C   0  0  0  0  0  0  0  0  0  0  0  0
   12.3380   -0.7131   -3.0026 H   0  0  0  0  0  0  0  0  0  0  0  0
   10.3062   -0.7790   -2.2473 C   0  0  0  0  0  0  0  0  0  0  0  0
    9.8460   -0.6072   -3.2306 H   0  0  0  0  0  0  0  0  0  0  0  0
  1 28  2  0  0  0  0
  2 29  1  0  0  0  0
  4 15  1  0  0  0  0
  5 16  1  0  0  0  0
  6 44  2  0  0  0  0
  7 46  1  0  0  0  0
  8  4  1  0  0  0  0
  8 10  1  0  0  0  0
  9  8  1  0  0  0  0
 10 12  2  0  0  0  0
 11 10  1  0  0  0  0
 12 13  1  0  0  0  0
 12 24  1  0  0  0  0
 13 14  1  0  0  0  0
 15 13  2  0  0  0  0
 16 15  1  6  0  0  0
 16 17  1  0  0  0  0
 17 18  1  0  0  0  0
 19 28  1  0  0  0  0
 19 17  2  0  0  0  0
 20 19  1  0  0  0  0
 21 20  1  0  0  0  0
 22 20  2  0  0  0  0
 22  5  1  0  0  0  0
 23 22  1  0  0  0  0
 24 25  1  0  0  0  0
 24 26  1  0  0  0  0
 27 24  1  0  0  0  0
 28  2  1  0  0  0  0
 29 30  1  0  0  0  0
 30 32  2  0  0  0  0
 30 31  1  0  0  0  0
 32 38  1  0  0  0  0
 33 42  1  0  0  0  0
 33 32  1  0  0  0  0
 34 33  2  0  0  0  0
 35 34  1  0  0  0  0
 36 34  1  0  0  0  0
 36 29  2  0  0  0  0
 37 36  1  0  0  0  0
 38 39  2  0  0  0  0
 38  6  1  0  0  0  0
 39  3  1  0  0  0  0
 40 41  1  0  0  0  0
 40 39  1  0  0  0  0
 42 40  2  0  0  0  0
 43 42  1  0  0  0  0
 44 45  1  0  0  0  0
 46 44  1  1  0  0  0
 46  3  1  0  0  0  0
 46 47  1  0  0  0  0
 47 54  1  0  0  0  0
 47 58  1  0  0  0  0
 48 62  1  0  0  0  0
 48 47  1  0  0  0  0
 49  7  1  0  0  0  0
 49 48  2  0  0  0  0
 50 51  1  0  0  0  0
 50  7  1  0  0  0  0
 52 50  1  0  0  0  0
 53 50  1  0  0  0  0
 54 56  1  0  0  0  0
 54 55  1  0  0  0  0
 57 54  1  0  0  0  0
 58 61  1  0  0  0  0
 58 59  1  0  0  0  0
 60 58  1  0  0  0  0
 62 63  1  0  0  0  0
 64 65  1  0  0  0  0
 64 62  2  0  0  0  0
 66 64  1  0  0  0  0
 67 66  1  0  0  0  0
 68 66  2  0  0  0  0
 68 49  1  0  0  0  0
 69 68  1  0  0  0  0
M  END
