3,5
 OpenBabel05122313053D

 39 43  0  0  0  0  0  0  0  0999 V2000
   -3.5228   -0.6145   -0.8777 N   0  0  0  0  0  0  0  0  0  0  0  0
   -3.9275   -1.9200   -1.0667 N   0  0  0  0  0  0  0  0  0  0  0  0
    0.6173    0.7736   -0.4064 N   0  0  0  0  0  2  0  0  0  0  0  0
   -4.7226   -2.2647   -0.1121 N   0  0  0  0  0  0  0  0  0  0  0  0
    1.3233   -1.7136   -0.3000 N   0  0  0  0  0  2  0  0  0  0  0  0
   -1.4328    0.5439   -1.3040 N   0  0  0  0  0  0  0  0  0  0  0  0
   -4.8742   -1.1930    0.7493 C   0  0  0  0  0  0  0  0  0  0  0  0
   -1.4604    4.2892   -1.1502 C   0  0  0  0  0  0  0  0  0  0  0  0
   -2.0535    5.1894   -1.3693 H   0  0  0  0  0  0  0  0  0  0  0  0
   -2.6483   -0.0100   -1.8592 C   0  0  0  0  0  0  0  0  0  0  0  0
   -2.4295   -0.8007   -2.6022 H   0  0  0  0  0  0  0  0  0  0  0  0
   -3.1693    0.8150   -2.3839 H   0  0  0  0  0  0  0  0  0  0  0  0
   -0.2590   -3.9186   -0.9968 C   0  0  0  0  0  0  0  0  0  0  0  0
   -0.8897   -4.7815   -1.2547 H   0  0  0  0  0  0  0  0  0  0  0  0
   -4.7932    1.2354    2.1054 C   0  0  0  0  0  0  0  0  0  0  0  0
   -4.7768    2.1814    2.6670 H   0  0  0  0  0  0  0  0  0  0  0  0
    0.6262    3.3170   -0.2902 C   0  0  0  0  0  0  0  0  0  0  0  0
    1.6343    3.3833    0.1461 H   0  0  0  0  0  0  0  0  0  0  0  0
   -5.5751    0.1563    2.5993 C   0  0  0  0  0  0  0  0  0  0  0  0
   -6.1458    0.2954    3.5292 H   0  0  0  0  0  0  0  0  0  0  0  0
   -2.0042    3.0316   -1.4419 C   0  0  0  0  0  0  0  0  0  0  0  0
   -3.0073    2.9405   -1.8828 H   0  0  0  0  0  0  0  0  0  0  0  0
   -0.1694    4.4274   -0.5842 C   0  0  0  0  0  0  0  0  0  0  0  0
    0.2168    5.4353   -0.3729 H   0  0  0  0  0  0  0  0  0  0  0  0
    1.0550   -4.0923   -0.5367 C   0  0  0  0  0  0  0  0  0  0  0  0
    1.5001   -5.0914   -0.4294 H   0  0  0  0  0  0  0  0  0  0  0  0
   -0.7735   -2.6231   -1.1155 C   0  0  0  0  0  0  0  0  0  0  0  0
   -1.8159   -2.4905   -1.4337 H   0  0  0  0  0  0  0  0  0  0  0  0
   -4.0378    1.1343    0.9337 C   0  0  0  0  0  0  0  0  0  0  0  0
   -3.4303    1.9746    0.5709 H   0  0  0  0  0  0  0  0  0  0  0  0
   -4.0966   -0.1030    0.2634 C   0  0  0  0  0  0  0  0  0  0  0  0
    0.0897    2.0483   -0.5767 C   0  0  0  0  0  0  0  0  0  0  0  0
    1.8120   -2.9706   -0.1921 C   0  0  0  0  0  0  0  0  0  0  0  0
    2.8448   -3.0213    0.1945 H   0  0  0  0  0  0  0  0  0  0  0  0
   -1.2075    1.9135   -1.1438 C   0  0  0  0  0  0  0  0  0  0  0  0
   -5.6282   -1.0687    1.9341 C   0  0  0  0  0  0  0  0  0  0  0  0
   -6.2247   -1.9139    2.3045 H   0  0  0  0  0  0  0  0  0  0  0  0
    0.0369   -1.5242   -0.7729 C   0  0  0  0  0  0  0  0  0  0  0  0
   -0.3024   -0.1148   -0.8382 C   0  0  0  0  0  0  0  0  0  0  0  0
  1 31  1  0  0  0  0
  2  1  1  0  0  0  0
  2  4  2  0  0  0  0
  4  7  1  0  0  0  0
  5 33  1  0  0  0  0
  6 35  1  0  0  0  0
  6 39  1  0  0  0  0
  7 36  1  0  0  0  0
  8 23  1  0  0  0  0
  9  8  1  0  0  0  0
 10  6  1  0  0  0  0
 10  1  1  0  0  0  0
 11 10  1  0  0  0  0
 12 10  1  0  0  0  0
 13 25  1  0  0  0  0
 14 13  1  0  0  0  0
 15 19  1  0  0  0  0
 15 16  1  0  0  0  0
 17 18  1  0  0  0  0
 19 20  1  0  0  0  0
 21  8  2  0  0  0  0
 21 35  1  0  0  0  0
 22 21  1  0  0  0  0
 23 24  1  0  0  0  0
 23 17  2  0  0  0  0
 25 26  1  0  0  0  0
 25 33  2  0  0  0  0
 27 13  2  0  0  0  0
 27 38  1  0  0  0  0
 28 27  1  0  0  0  0
 29 15  2  0  0  0  0
 30 29  1  0  0  0  0
 31  7  2  0  0  0  0
 31 29  1  0  0  0  0
 32  3  1  0  0  0  0
 32 17  1  0  0  0  0
 33 34  1  0  0  0  0
 35 32  2  0  0  0  0
 36 37  1  0  0  0  0
 36 19  2  0  0  0  0
 38  5  1  0  0  0  0
 39 38  2  0  0  0  0
 39  3  1  0  0  0  0
M  END
