2,4
 OpenBabel05122313053D

 42 44  0  0  1  0  0  0  0  0999 V2000
    0.5274   -1.2078    0.9439 N   0  0  0  0  0  0  0  0  0  0  0  0
   -0.5984   -1.4601    0.2332 N   0  0  0  0  0  2  0  0  0  0  0  0
    0.5273    1.2090    0.9427 N   0  0  0  0  0  0  0  0  0  0  0  0
   -0.5988    1.4603    0.2322 N   0  0  0  0  0  2  0  0  0  0  0  0
    4.0913    0.0001    0.6298 O   0  0  0  0  0  0  0  0  0  0  0  0
    5.0557   -0.0002    0.4865 H   0  0  0  0  0  0  0  0  0  0  0  0
    3.4669   -0.0004   -0.5962 C   0  0  0  0  0  0  0  0  0  0  0  0
    4.1968   -0.0011   -1.7969 C   0  0  0  0  0  0  0  0  0  0  0  0
    5.2989   -0.0013   -1.7630 H   0  0  0  0  0  0  0  0  0  0  0  0
    3.5211   -0.0016   -3.0252 C   0  0  0  0  0  0  0  0  0  0  0  0
    4.1006   -0.0022   -3.9608 H   0  0  0  0  0  0  0  0  0  0  0  0
    2.1187   -0.0013   -3.0564 C   0  0  0  0  0  0  0  0  0  0  0  0
    1.5733   -0.0017   -4.0110 H   0  0  0  0  0  0  0  0  0  0  0  0
    1.3907   -0.0006   -1.8586 C   0  0  0  0  0  0  0  0  0  0  0  0
    0.2899   -0.0005   -1.9192 H   0  0  0  0  0  0  0  0  0  0  0  0
    2.0519   -0.0001   -0.6175 C   0  0  0  0  0  0  0  0  0  0  0  0
    1.3156    0.0006    0.7153 C   0  0  2  0  0  0  0  0  0  0  0  0
    2.0779    0.0010    1.5114 H   0  0  0  0  0  0  0  0  0  0  0  0
    0.9180   -2.3060    1.6713 C   0  0  2  0  0  3  0  0  0  0  0  0
   -0.0391   -3.2908    1.4221 C   0  0  0  0  0  0  0  0  0  0  0  0
   -0.0602   -4.2990    1.8480 H   0  0  0  0  0  0  0  0  0  0  0  0
   -0.9758   -2.7166    0.5251 C   0  0  0  0  0  0  0  0  0  0  0  0
    2.1430   -2.3248    2.5255 C   0  0  0  0  0  0  0  0  0  0  0  0
    2.2858   -3.3362    2.9472 H   0  0  0  0  0  0  0  0  0  0  0  0
    2.0598   -1.6170    3.3777 H   0  0  0  0  0  0  0  0  0  0  0  0
    3.0563   -2.0537    1.9572 H   0  0  0  0  0  0  0  0  0  0  0  0
   -2.2483   -3.2568   -0.0377 C   0  0  0  0  0  0  0  0  0  0  0  0
   -3.1117   -2.7906    0.4847 H   0  0  0  0  0  0  0  0  0  0  0  0
   -2.3032   -4.3556    0.0675 H   0  0  0  0  0  0  0  0  0  0  0  0
   -2.3393   -2.9816   -1.1081 H   0  0  0  0  0  0  0  0  0  0  0  0
    0.9179    2.3080    1.6688 C   0  0  1  0  0  3  0  0  0  0  0  0
   -0.0394    3.2924    1.4189 C   0  0  0  0  0  0  0  0  0  0  0  0
   -0.0606    4.3011    1.8438 H   0  0  0  0  0  0  0  0  0  0  0  0
   -0.9764    2.7170    0.5229 C   0  0  0  0  0  0  0  0  0  0  0  0
    2.1433    2.3280    2.5224 C   0  0  0  0  0  0  0  0  0  0  0  0
    2.0612    1.6204    3.3748 H   0  0  0  0  0  0  0  0  0  0  0  0
    2.2856    3.3396    2.9438 H   0  0  0  0  0  0  0  0  0  0  0  0
    3.0565    2.0574    1.9537 H   0  0  0  0  0  0  0  0  0  0  0  0
   -2.2491    3.2566   -0.0401 C   0  0  0  0  0  0  0  0  0  0  0  0
   -2.3389    2.9830   -1.1110 H   0  0  0  0  0  0  0  0  0  0  0  0
   -2.3054    4.3551    0.0668 H   0  0  0  0  0  0  0  0  0  0  0  0
   -3.1122    2.7884    0.4809 H   0  0  0  0  0  0  0  0  0  0  0  0
  1 19  1  0  0  0  0
  2 22  1  0  0  0  0
  2  1  1  0  0  0  0
  3 31  1  0  0  0  0
  4 34  1  0  0  0  0
  4  3  1  0  0  0  0
  6  5  1  0  0  0  0
  7  5  1  0  0  0  0
  8  9  1  0  0  0  0
  8  7  2  0  0  0  0
 10  8  1  0  0  0  0
 11 10  1  0  0  0  0
 12 10  2  0  0  0  0
 12 14  1  0  0  0  0
 13 12  1  0  0  0  0
 14 16  2  0  0  0  0
 15 14  1  0  0  0  0
 16  7  1  0  0  0  0
 16 17  1  0  0  0  0
 17  3  1  0  0  0  0
 17  1  1  0  0  0  0
 17 18  1  1  0  0  0
 19 23  1  1  0  0  0
 20 19  1  0  0  0  0
 20 21  1  0  0  0  0
 22 20  2  0  0  0  0
 23 24  1  0  0  0  0
 23 25  1  0  0  0  0
 26 23  1  0  0  0  0
 27 29  1  0  0  0  0
 27 28  1  0  0  0  0
 27 22  1  0  0  0  0
 30 27  1  0  0  0  0
 31 35  1  1  0  0  0
 32 31  1  0  0  0  0
 32 33  1  0  0  0  0
 34 32  2  0  0  0  0
 35 37  1  0  0  0  0
 35 36  1  0  0  0  0
 38 35  1  0  0  0  0
 39 41  1  0  0  0  0
 39 42  1  0  0  0  0
 39 34  1  0  0  0  0
 40 39  1  0  0  0  0
M  END
