1,2
 OpenBabel05122313053D

 38 42  0  0  0  0  0  0  0  0999 V2000
   -0.5581    0.8229   -0.3565 N   0  0  0  0  0  2  0  0  0  0  0  0
   -1.4729   -1.5833   -0.5588 N   0  0  0  0  0  2  0  0  0  0  0  0
    0.2899   -0.0713   -0.9148 C   0  0  0  0  0  0  0  0  0  0  0  0
    0.0826    2.0548   -0.3268 C   0  0  0  0  0  0  0  0  0  0  0  0
    1.4796    0.5464   -1.2658 N   0  0  0  0  0  0  0  0  0  0  0  0
    1.3768    1.8869   -0.8930 C   0  0  0  0  0  0  0  0  0  0  0  0
   -0.1860   -1.4348   -1.0509 C   0  0  0  0  0  0  0  0  0  0  0  0
   -0.0925   -3.7765   -1.6550 N   0  0  0  0  0  0  0  0  0  0  0  0
    3.7779   -0.0787   -0.8853 N   0  0  0  0  0  0  0  0  0  0  0  0
   -0.3412    3.3132    0.1412 C   0  0  0  0  0  0  0  0  0  0  0  0
   -1.3470    3.4175    0.5725 H   0  0  0  0  0  0  0  0  0  0  0  0
   -2.0417   -2.8099   -0.6240 C   0  0  0  0  0  0  0  0  0  0  0  0
   -3.0664   -2.8689   -0.2178 H   0  0  0  0  0  0  0  0  0  0  0  0
    5.6855    0.5946   -0.0786 N   0  0  0  0  0  0  0  0  0  0  0  0
    2.6928   -0.0161   -1.8319 C   0  0  0  0  0  0  0  0  0  0  0  0
    2.4755   -1.0130   -2.2509 H   0  0  0  0  0  0  0  0  0  0  0  0
    3.0516    0.6351   -2.6533 H   0  0  0  0  0  0  0  0  0  0  0  0
    4.8609    0.7646   -1.0533 N   0  0  0  0  0  0  0  0  0  0  0  0
    2.2942    2.9450   -0.9984 C   0  0  0  0  0  0  0  0  0  0  0  0
    3.3072    2.7999   -1.3992 H   0  0  0  0  0  0  0  0  0  0  0  0
    5.6879   -0.8831    1.9861 C   0  0  0  0  0  0  0  0  0  0  0  0
    6.6554   -0.5355    2.3740 H   0  0  0  0  0  0  0  0  0  0  0  0
    3.1404   -1.7694    0.9404 C   0  0  0  0  0  0  0  0  0  0  0  0
    2.1670   -2.1099    0.5619 H   0  0  0  0  0  0  0  0  0  0  0  0
   -1.3436   -3.8891   -1.1720 C   0  0  0  0  0  0  0  0  0  0  0  0
   -1.8206   -4.8819   -1.2190 H   0  0  0  0  0  0  0  0  0  0  0  0
    3.9205   -0.8060    0.2736 C   0  0  0  0  0  0  0  0  0  0  0  0
    1.8584    4.1892   -0.5285 C   0  0  0  0  0  0  0  0  0  0  0  0
    2.5430    5.0484   -0.5864 H   0  0  0  0  0  0  0  0  0  0  0  0
    5.1724   -0.3598    0.7833 C   0  0  0  0  0  0  0  0  0  0  0  0
    0.5661    4.3688    0.0269 C   0  0  0  0  0  0  0  0  0  0  0  0
    0.2722    5.3672    0.3830 H   0  0  0  0  0  0  0  0  0  0  0  0
    0.4664   -2.5664   -1.5905 C   0  0  0  0  0  0  0  0  0  0  0  0
    1.4912   -2.4926   -1.9864 H   0  0  0  0  0  0  0  0  0  0  0  0
    4.9195   -1.8419    2.6477 C   0  0  0  0  0  0  0  0  0  0  0  0
    5.2831   -2.2736    3.5917 H   0  0  0  0  0  0  0  0  0  0  0  0
    3.6681   -2.2742    2.1327 C   0  0  0  0  0  0  0  0  0  0  0  0
    3.0928   -3.0271    2.6917 H   0  0  0  0  0  0  0  0  0  0  0  0
  1  4  1  0  0  0  0
  3  1  1  0  0  0  0
  4 10  1  0  0  0  0
  5  3  1  0  0  0  0
  5  6  1  0  0  0  0
  6  4  2  0  0  0  0
  7  3  2  0  0  0  0
  7  2  1  0  0  0  0
  8 33  2  0  0  0  0
  8 25  1  0  0  0  0
  9 27  1  0  0  0  0
 10 11  1  0  0  0  0
 12  2  1  0  0  0  0
 12 13  1  0  0  0  0
 14 30  1  0  0  0  0
 15  5  1  0  0  0  0
 15  9  1  0  0  0  0
 16 15  1  0  0  0  0
 17 15  1  0  0  0  0
 18  9  1  0  0  0  0
 18 14  2  0  0  0  0
 19  6  1  0  0  0  0
 19 28  2  0  0  0  0
 20 19  1  0  0  0  0
 21 22  1  0  0  0  0
 21 35  1  0  0  0  0
 23 37  1  0  0  0  0
 24 23  1  0  0  0  0
 25 12  2  0  0  0  0
 26 25  1  0  0  0  0
 27 30  1  0  0  0  0
 27 23  2  0  0  0  0
 28 31  1  0  0  0  0
 29 28  1  0  0  0  0
 30 21  2  0  0  0  0
 31 10  2  0  0  0  0
 31 32  1  0  0  0  0
 33  7  1  0  0  0  0
 34 33  1  0  0  0  0
 35 36  1  0  0  0  0
 37 35  2  0  0  0  0
 37 38  1  0  0  0  0
M  END
