1,2
 OpenBabel05122313053D

 45 45  0  0  0  0  0  0  0  0999 V2000
    1.8241    0.2424    0.4553 N   0  0  0  0  0  0  0  0  0  0  0  0
   -0.7885    0.3007   -0.3456 N   0  0  0  0  0  2  0  0  0  0  0  0
   -2.7601    1.2398    0.6188 N   0  0  0  0  0  0  0  0  0  0  0  0
   -4.1379    1.5790    0.3067 C   0  0  0  0  0  0  0  0  0  0  0  0
   -4.2086    2.6554    0.0315 H   0  0  0  0  0  0  0  0  0  0  0  0
   -4.8211    1.4035    1.1674 H   0  0  0  0  0  0  0  0  0  0  0  0
   -4.4868    0.9748   -0.5496 H   0  0  0  0  0  0  0  0  0  0  0  0
   -2.8042   -0.8626   -0.4101 N   0  0  0  0  0  0  0  0  0  0  0  0
   -0.5703    2.6192   -1.1949 C   0  0  0  0  0  0  0  0  0  0  0  0
   -1.6282    2.6294   -1.4967 H   0  0  0  0  0  0  0  0  0  0  0  0
   -2.0815    0.2454   -0.0582 C   0  0  0  0  0  3  0  0  0  0  0  0
    1.3300    1.4327   -0.2126 C   0  0  0  0  0  0  0  0  0  0  0  0
   -0.0538    1.4670   -0.5611 C   0  0  0  0  0  0  0  0  0  0  0  0
    2.1479    2.5315   -0.5207 C   0  0  0  0  0  0  0  0  0  0  0  0
    3.2157    2.5014   -0.2649 H   0  0  0  0  0  0  0  0  0  0  0  0
    0.2572    3.7122   -1.4805 C   0  0  0  0  0  0  0  0  0  0  0  0
   -0.1626    4.5950   -1.9862 H   0  0  0  0  0  0  0  0  0  0  0  0
    1.5767    0.2833    1.9284 C   0  0  0  0  0  0  0  0  0  0  0  0
    1.7415   -0.7396    2.3194 H   0  0  0  0  0  0  0  0  0  0  0  0
    0.4882    0.4493    2.0561 H   0  0  0  0  0  0  0  0  0  0  0  0
    3.6273   -1.5010    0.5955 C   0  0  0  0  0  0  0  0  0  0  0  0
    4.6345   -1.7444    0.2040 H   0  0  0  0  0  0  0  0  0  0  0  0
    2.9365   -2.2919    0.2389 H   0  0  0  0  0  0  0  0  0  0  0  0
    3.6800   -1.5418    1.7014 H   0  0  0  0  0  0  0  0  0  0  0  0
   -2.0956    2.1087    1.5714 C   0  0  0  0  0  0  0  0  0  0  0  0
   -1.1349    1.6633    1.8842 H   0  0  0  0  0  0  0  0  0  0  0  0
   -2.7361    2.2255    2.4715 H   0  0  0  0  0  0  0  0  0  0  0  0
   -1.8858    3.1178    1.1511 H   0  0  0  0  0  0  0  0  0  0  0  0
    3.2086   -0.1350    0.0684 C   0  0  0  0  0  0  0  0  0  0  0  0
    3.9391    0.6367    0.4011 H   0  0  0  0  0  0  0  0  0  0  0  0
    3.2094   -0.1573   -1.0397 H   0  0  0  0  0  0  0  0  0  0  0  0
    2.3859    1.3185    2.7011 C   0  0  0  0  0  0  0  0  0  0  0  0
    2.0958    1.2941    3.7705 H   0  0  0  0  0  0  0  0  0  0  0  0
    2.2079    2.3461    2.3244 H   0  0  0  0  0  0  0  0  0  0  0  0
    3.4753    1.1179    2.6524 H   0  0  0  0  0  0  0  0  0  0  0  0
   -2.3420   -1.7420   -1.4760 C   0  0  0  0  0  0  0  0  0  0  0  0
   -3.2176   -2.0985   -2.0584 H   0  0  0  0  0  0  0  0  0  0  0  0
   -1.8109   -2.6263   -1.0600 H   0  0  0  0  0  0  0  0  0  0  0  0
   -1.6469   -1.2074   -2.1476 H   0  0  0  0  0  0  0  0  0  0  0  0
    1.6197    3.6703   -1.1487 C   0  0  0  0  0  0  0  0  0  0  0  0
    2.2769    4.5206   -1.3827 H   0  0  0  0  0  0  0  0  0  0  0  0
   -3.7300   -1.4852    0.5300 C   0  0  0  0  0  0  0  0  0  0  0  0
   -4.7038   -1.7108    0.0463 H   0  0  0  0  0  0  0  0  0  0  0  0
   -3.9003   -0.8226    1.3960 H   0  0  0  0  0  0  0  0  0  0  0  0
   -3.2757   -2.4264    0.9089 H   0  0  0  0  0  0  0  0  0  0  0  0
  1 18  1  0  0  0  0
  2 11  1  0  0  0  0
  3 25  1  0  0  0  0
  4  3  1  0  0  0  0
  4  6  1  0  0  0  0
  5  4  1  0  0  0  0
  7  4  1  0  0  0  0
  8 11  1  0  0  0  0
  8 42  1  0  0  0  0
  9 13  1  0  0  0  0
 10  9  1  0  0  0  0
 11  3  1  0  0  0  0
 12  1  1  0  0  0  0
 13  2  1  0  0  0  0
 13 12  2  0  0  0  0
 14 15  1  0  0  0  0
 14 12  1  0  0  0  0
 16  9  2  0  0  0  0
 16 40  1  0  0  0  0
 17 16  1  0  0  0  0
 18 20  1  0  0  0  0
 18 19  1  0  0  0  0
 18 32  1  0  0  0  0
 21 24  1  0  0  0  0
 22 21  1  0  0  0  0
 23 21  1  0  0  0  0
 25 26  1  0  0  0  0
 25 27  1  0  0  0  0
 28 25  1  0  0  0  0
 29 30  1  0  0  0  0
 29  1  1  0  0  0  0
 29 21  1  0  0  0  0
 31 29  1  0  0  0  0
 32 33  1  0  0  0  0
 34 32  1  0  0  0  0
 35 32  1  0  0  0  0
 36 38  1  0  0  0  0
 36  8  1  0  0  0  0
 37 36  1  0  0  0  0
 39 36  1  0  0  0  0
 40 14  2  0  0  0  0
 41 40  1  0  0  0  0
 42 45  1  0  0  0  0
 42 44  1  0  0  0  0
 43 42  1  0  0  0  0
M  END
