6,8
 OpenBabel05122313053D

 35 34  0  0  0  0  0  0  0  0999 V2000
   -1.7280   -0.0606   -0.5489 C   0  0  0  0  0  3  0  0  0  0  0  0
   -2.8957    1.7488    0.6379 C   0  0  0  0  0  0  0  0  0  0  0  0
   -3.2480    0.9049    1.2551 H   0  0  0  0  0  0  0  0  0  0  0  0
   -3.7671    2.3502    0.3018 H   0  0  0  0  0  0  0  0  0  0  0  0
   -2.2501    2.3807    1.2859 H   0  0  0  0  0  0  0  0  0  0  0  0
    2.1096   -1.2340   -0.2879 N   0  0  0  0  0  0  0  0  0  0  0  0
   -2.1220    1.2542   -0.4937 N   0  0  0  0  0  0  0  0  0  0  0  0
   -0.4873   -0.3374   -0.9058 N   0  0  0  0  0  2  0  0  0  0  0  0
   -1.3787    2.2680   -1.2302 C   0  0  0  0  0  0  0  0  0  0  0  0
   -0.9338    1.8150   -2.1341 H   0  0  0  0  0  0  0  0  0  0  0  0
   -0.5403    2.7025   -0.6399 H   0  0  0  0  0  0  0  0  0  0  0  0
   -2.0727    3.0837   -1.5211 H   0  0  0  0  0  0  0  0  0  0  0  0
   -2.3354   -2.1151    0.6723 C   0  0  0  0  0  0  0  0  0  0  0  0
   -1.3745   -1.8945    1.1776 H   0  0  0  0  0  0  0  0  0  0  0  0
   -2.2872   -3.0963    0.1469 H   0  0  0  0  0  0  0  0  0  0  0  0
   -3.1080   -2.1973    1.4675 H   0  0  0  0  0  0  0  0  0  0  0  0
    2.9104   -0.9096   -1.4760 C   0  0  0  0  0  0  0  0  0  0  0  0
    3.5040   -1.7880   -1.8230 H   0  0  0  0  0  0  0  0  0  0  0  0
    3.5813   -0.0631   -1.2363 H   0  0  0  0  0  0  0  0  0  0  0  0
    2.2514   -0.5683   -2.2962 H   0  0  0  0  0  0  0  0  0  0  0  0
   -2.6756   -1.0090   -0.2092 N   0  0  0  0  0  0  0  0  0  0  0  0
   -0.0808   -1.6339   -1.4160 C   0  0  0  0  0  0  0  0  0  0  0  0
    0.2829   -1.5039   -2.4613 H   0  0  0  0  0  0  0  0  0  0  0  0
   -0.9128   -2.3677   -1.4713 H   0  0  0  0  0  0  0  0  0  0  0  0
   -4.0720   -0.8666   -0.5756 C   0  0  0  0  0  0  0  0  0  0  0  0
   -4.1856   -0.0313   -1.2905 H   0  0  0  0  0  0  0  0  0  0  0  0
   -4.7269   -0.6676    0.3039 H   0  0  0  0  0  0  0  0  0  0  0  0
   -4.4367   -1.7985   -1.0619 H   0  0  0  0  0  0  0  0  0  0  0  0
    2.9550   -1.6324    0.8456 C   0  0  0  0  0  0  0  0  0  0  0  0
    3.4848   -2.5948    0.6520 H   0  0  0  0  0  0  0  0  0  0  0  0
    2.3230   -1.7197    1.7512 H   0  0  0  0  0  0  0  0  0  0  0  0
    3.7078   -0.8408    1.0269 H   0  0  0  0  0  0  0  0  0  0  0  0
    1.0483   -2.2251   -0.5567 C   0  0  0  0  0  0  0  0  0  0  0  0
    0.6378   -2.5236    0.4283 H   0  0  0  0  0  0  0  0  0  0  0  0
    1.4685   -3.1389   -1.0428 H   0  0  0  0  0  0  0  0  0  0  0  0
  1  7  1  0  0  0  0
  1 21  1  0  0  0  0
  2  3  1  0  0  0  0
  2  5  1  0  0  0  0
  4  2  1  0  0  0  0
  6 29  1  0  0  0  0
  7  2  1  0  0  0  0
  8  1  1  0  0  0  0
  9 11  1  0  0  0  0
  9  7  1  0  0  0  0
 10  9  1  0  0  0  0
 12  9  1  0  0  0  0
 13 14  1  0  0  0  0
 13 16  1  0  0  0  0
 15 13  1  0  0  0  0
 17 19  1  0  0  0  0
 17  6  1  0  0  0  0
 18 17  1  0  0  0  0
 20 17  1  0  0  0  0
 21 13  1  0  0  0  0
 22  8  1  0  0  0  0
 22 33  1  0  0  0  0
 23 22  1  0  0  0  0
 24 22  1  0  0  0  0
 25 21  1  0  0  0  0
 25 27  1  0  0  0  0
 26 25  1  0  0  0  0
 28 25  1  0  0  0  0
 29 32  1  0  0  0  0
 29 31  1  0  0  0  0
 30 29  1  0  0  0  0
 33  6  1  0  0  0  0
 33 34  1  0  0  0  0
 35 33  1  0  0  0  0
M  END
