8,9
 OpenBabel05122313053D

 66 69  0  0  1  0  0  0  0  0999 V2000
   -3.0081   -0.1658   -1.2042 O   0  0  0  0  0  0  0  0  0  0  0  0
   -4.2222   -2.8408   -1.1504 O   0  0  0  0  0  0  0  0  0  0  0  0
   -6.8834   -3.2153    0.2729 O   0  0  0  0  0  0  0  0  0  0  0  0
   -7.4816   -0.3969    0.7427 O   0  0  0  0  0  0  0  0  0  0  0  0
   -6.7905    2.3403    0.4514 O   0  0  0  0  0  0  0  0  0  0  0  0
   -4.1345    2.1216   -0.6189 O   0  0  0  0  0  0  0  0  0  0  0  0
    1.3629    1.4122    0.2632 N   0  0  0  0  0  0  0  0  0  0  0  0
    3.4634    1.2540   -0.8693 N   0  0  0  0  0  2  0  0  0  0  0  0
    2.9146    0.2770    1.6882 N   0  0  0  0  0  2  0  0  0  0  0  0
    2.2550    1.8544   -0.7382 C   0  0  2  0  0  3  0  0  0  0  0  0
    1.8885    2.9175   -1.5983 C   0  0  0  0  0  0  0  0  0  0  0  0
    0.8887    3.3592   -1.5199 H   0  0  0  0  0  0  0  0  0  0  0  0
    2.8164    3.4046   -2.5187 C   0  0  0  0  0  0  0  0  0  0  0  0
    2.5365    4.2323   -3.1874 H   0  0  0  0  0  0  0  0  0  0  0  0
    4.1083    2.8545   -2.5561 C   0  0  0  0  0  0  0  0  0  0  0  0
    4.8822    3.2319   -3.2380 H   0  0  0  0  0  0  0  0  0  0  0  0
    4.3875    1.7846   -1.7099 C   0  0  0  0  0  0  0  0  0  0  0  0
    5.3740    1.2991   -1.6746 H   0  0  0  0  0  0  0  0  0  0  0  0
    1.7690    0.9880    1.5483 C   0  0  2  0  0  3  0  0  0  0  0  0
    0.9812    1.3054    2.6809 C   0  0  0  0  0  0  0  0  0  0  0  0
    0.0307    1.8349    2.5498 H   0  0  0  0  0  0  0  0  0  0  0  0
    1.4388    0.9590    3.9520 C   0  0  0  0  0  0  0  0  0  0  0  0
    0.8304    1.2051    4.8352 H   0  0  0  0  0  0  0  0  0  0  0  0
    2.6870    0.3300    4.0900 C   0  0  0  0  0  0  0  0  0  0  0  0
    3.1033    0.0722    5.0732 H   0  0  0  0  0  0  0  0  0  0  0  0
    3.3915    0.0139    2.9315 C   0  0  0  0  0  0  0  0  0  0  0  0
    4.3773   -0.4738    2.9527 H   0  0  0  0  0  0  0  0  0  0  0  0
   -0.0483    1.6643    0.0623 C   0  0  0  0  0  0  0  0  0  0  0  0
   -0.8205    0.6166   -0.4749 C   0  0  0  0  0  0  0  0  0  0  0  0
   -0.3217   -0.3295   -0.7158 H   0  0  0  0  0  0  0  0  0  0  0  0
   -2.1951    0.7845   -0.6908 C   0  0  0  0  0  0  0  0  0  0  0  0
   -2.8097    2.0381   -0.3676 C   0  0  0  0  0  0  0  0  0  0  0  0
   -2.0192    3.0719    0.1635 C   0  0  0  0  0  0  0  0  0  0  0  0
   -2.4763    4.0384    0.4115 H   0  0  0  0  0  0  0  0  0  0  0  0
   -0.6404    2.8905    0.3844 C   0  0  0  0  0  0  0  0  0  0  0  0
   -0.0370    3.7085    0.8039 H   0  0  0  0  0  0  0  0  0  0  0  0
   -2.4051   -1.3801   -1.6536 C   0  0  0  0  0  0  0  0  0  0  0  0
   -1.8852   -1.8968   -0.8166 H   0  0  0  0  0  0  0  0  0  0  0  0
   -1.6475   -1.1616   -2.4397 H   0  0  0  0  0  0  0  0  0  0  0  0
   -3.4820   -2.2833   -2.2104 C   0  0  0  0  0  0  0  0  0  0  0  0
   -4.1373   -1.6960   -2.9000 H   0  0  0  0  0  0  0  0  0  0  0  0
   -2.9912   -3.0835   -2.8204 H   0  0  0  0  0  0  0  0  0  0  0  0
   -5.3110   -3.6350   -1.5809 C   0  0  0  0  0  0  0  0  0  0  0  0
   -4.9477   -4.4973   -2.1982 H   0  0  0  0  0  0  0  0  0  0  0  0
   -6.0083   -3.0380   -2.2191 H   0  0  0  0  0  0  0  0  0  0  0  0
   -6.0787   -4.1705   -0.3789 C   0  0  0  0  0  0  0  0  0  0  0  0
   -6.7657   -4.9643   -0.7416 H   0  0  0  0  0  0  0  0  0  0  0  0
   -5.3534   -4.6464    0.3276 H   0  0  0  0  0  0  0  0  0  0  0  0
   -6.1842   -2.3474    1.1526 C   0  0  0  0  0  0  0  0  0  0  0  0
   -5.3734   -1.7979    0.6251 H   0  0  0  0  0  0  0  0  0  0  0  0
   -5.7167   -2.9310    1.9855 H   0  0  0  0  0  0  0  0  0  0  0  0
   -7.1596   -1.3470    1.7324 C   0  0  0  0  0  0  0  0  0  0  0  0
   -8.0693   -1.8849    2.1007 H   0  0  0  0  0  0  0  0  0  0  0  0
   -6.6844   -0.8499    2.6159 H   0  0  0  0  0  0  0  0  0  0  0  0
   -8.2930    0.6621    1.1850 C   0  0  0  0  0  0  0  0  0  0  0  0
   -8.0085    0.9864    2.2169 H   0  0  0  0  0  0  0  0  0  0  0  0
   -9.3760    0.3786    1.2138 H   0  0  0  0  0  0  0  0  0  0  0  0
   -8.0908    1.8309    0.2408 C   0  0  0  0  0  0  0  0  0  0  0  0
   -8.2086    1.4679   -0.8090 H   0  0  0  0  0  0  0  0  0  0  0  0
   -8.8733    2.6114    0.4184 H   0  0  0  0  0  0  0  0  0  0  0  0
   -6.2870    3.1379   -0.5872 C   0  0  0  0  0  0  0  0  0  0  0  0
   -6.7876    4.1398   -0.6315 H   0  0  0  0  0  0  0  0  0  0  0  0
   -6.4334    2.6507   -1.5825 H   0  0  0  0  0  0  0  0  0  0  0  0
   -4.8058    3.3468   -0.3506 C   0  0  0  0  0  0  0  0  0  0  0  0
   -4.4182    4.1557   -1.0127 H   0  0  0  0  0  0  0  0  0  0  0  0
   -4.6498    3.6552    0.7081 H   0  0  0  0  0  0  0  0  0  0  0  0
  1 31  1  0  0  0  0
  3 49  1  0  0  0  0
  4 55  1  0  0  0  0
  4 52  1  0  0  0  0
  6 32  1  0  0  0  0
  6 64  1  0  0  0  0
  8 10  1  0  0  0  0
  9 26  1  0  0  0  0
 10  7  1  1  0  0  0
 11 12  1  0  0  0  0
 11 10  1  0  0  0  0
 13 11  2  0  0  0  0
 14 13  1  0  0  0  0
 15 13  1  0  0  0  0
 15 17  2  0  0  0  0
 16 15  1  0  0  0  0
 17 18  1  0  0  0  0
 17  8  1  0  0  0  0
 19  7  1  6  0  0  0
 19  9  1  0  0  0  0
 19 20  1  0  0  0  0
 20 22  2  0  0  0  0
 21 20  1  0  0  0  0
 22 24  1  0  0  0  0
 22 23  1  0  0  0  0
 24 25  1  0  0  0  0
 26 27  1  0  0  0  0
 26 24  2  0  0  0  0
 28  7  1  0  0  0  0
 28 35  1  0  0  0  0
 29 28  2  0  0  0  0
 30 29  1  0  0  0  0
 31 29  1  0  0  0  0
 31 32  2  0  0  0  0
 32 33  1  0  0  0  0
 33 35  2  0  0  0  0
 33 34  1  0  0  0  0
 35 36  1  0  0  0  0
 37  1  1  0  0  0  0
 37 38  1  0  0  0  0
 39 37  1  0  0  0  0
 40 37  1  0  0  0  0
 40  2  1  0  0  0  0
 41 40  1  0  0  0  0
 42 40  1  0  0  0  0
 43  2  1  0  0  0  0
 43 46  1  0  0  0  0
 44 43  1  0  0  0  0
 45 43  1  0  0  0  0
 46  3  1  0  0  0  0
 46 48  1  0  0  0  0
 47 46  1  0  0  0  0
 49 52  1  0  0  0  0
 49 51  1  0  0  0  0
 50 49  1  0  0  0  0
 52 53  1  0  0  0  0
 52 54  1  0  0  0  0
 55 57  1  0  0  0  0
 55 56  1  0  0  0  0
 58 60  1  0  0  0  0
 58  5  1  0  0  0  0
 58 55  1  0  0  0  0
 59 58  1  0  0  0  0
 61 64  1  0  0  0  0
 61  5  1  0  0  0  0
 62 61  1  0  0  0  0
 63 61  1  0  0  0  0
 64 66  1  0  0  0  0
 65 64  1  0  0  0  0
M  END
