2,3
 OpenBabel05122313053D

 33 34  0  0  0  0  0  0  0  0999 V2000
   -1.7875    0.7573   -0.0646 C   0  0  0  0  0  0  0  0  0  0  0  0
   -1.6468   -0.5895    0.1384 N   0  0  0  0  0  2  0  0  0  0  0  0
    0.5169    0.7201   -0.5303 N   0  0  0  0  0  2  0  0  0  0  0  0
   -3.0369    1.4055    0.0527 C   0  0  0  0  0  0  0  0  0  0  0  0
   -0.5560    1.4659   -0.4111 C   0  0  0  0  0  0  0  0  0  0  0  0
    4.8977    2.2250    1.3905 C   0  0  0  0  0  0  0  0  0  0  0  0
    4.4570    3.0415    2.0004 H   0  0  0  0  0  0  0  0  0  0  0  0
    5.9389    2.5153    1.1450 H   0  0  0  0  0  0  0  0  0  0  0  0
    4.9435    1.3206    2.0315 H   0  0  0  0  0  0  0  0  0  0  0  0
    2.6371    1.5393    0.4353 C   0  0  0  0  0  0  0  0  0  0  0  0
    2.1298    2.3065    1.0634 H   0  0  0  0  0  0  0  0  0  0  0  0
    2.6433    0.5925    1.0149 H   0  0  0  0  0  0  0  0  0  0  0  0
   -2.7176   -1.3352    0.4661 C   0  0  0  0  0  0  0  0  0  0  0  0
   -2.5028   -2.4082    0.6125 H   0  0  0  0  0  0  0  0  0  0  0  0
    1.8230    1.2879   -0.8419 C   0  0  0  0  0  0  0  0  0  0  0  0
    1.7167    2.2168   -1.4406 H   0  0  0  0  0  0  0  0  0  0  0  0
    2.3579    0.5274   -1.4454 H   0  0  0  0  0  0  0  0  0  0  0  0
   -0.6147    2.9605   -0.6144 C   0  0  0  0  0  0  0  0  0  0  0  0
   -0.7126    3.1625   -1.7065 H   0  0  0  0  0  0  0  0  0  0  0  0
    0.3383    3.4272   -0.2991 H   0  0  0  0  0  0  0  0  0  0  0  0
   -3.1172    2.8920   -0.1974 C   0  0  0  0  0  0  0  0  0  0  0  0
   -3.3670    3.0622   -1.2700 H   0  0  0  0  0  0  0  0  0  0  0  0
   -3.9565    3.3251    0.3835 H   0  0  0  0  0  0  0  0  0  0  0  0
    4.0752    1.9626    0.1288 C   0  0  0  0  0  0  0  0  0  0  0  0
    4.5539    1.1585   -0.4711 H   0  0  0  0  0  0  0  0  0  0  0  0
    4.0725    2.8702   -0.5161 H   0  0  0  0  0  0  0  0  0  0  0  0
   -4.1490    0.6178    0.3956 C   0  0  0  0  0  0  0  0  0  0  0  0
   -5.1386    1.0884    0.5034 H   0  0  0  0  0  0  0  0  0  0  0  0
   -3.9876   -0.7591    0.6033 C   0  0  0  0  0  0  0  0  0  0  0  0
   -4.8404   -1.3967    0.8766 H   0  0  0  0  0  0  0  0  0  0  0  0
   -1.7956    3.5908    0.1380 C   0  0  0  0  0  0  0  0  0  0  0  0
   -1.6121    3.5180    1.2315 H   0  0  0  0  0  0  0  0  0  0  0  0
   -1.8582    4.6698   -0.1052 H   0  0  0  0  0  0  0  0  0  0  0  0
  1  4  1  0  0  0  0
  1  2  1  0  0  0  0
  2 13  1  0  0  0  0
  3  5  1  0  0  0  0
  4 27  2  0  0  0  0
  5  1  2  0  0  0  0
  6  7  1  0  0  0  0
  6  9  1  0  0  0  0
  8  6  1  0  0  0  0
 10 12  1  0  0  0  0
 10 11  1  0  0  0  0
 13 29  2  0  0  0  0
 13 14  1  0  0  0  0
 15  3  1  0  0  0  0
 15 10  1  0  0  0  0
 16 15  1  0  0  0  0
 17 15  1  0  0  0  0
 18  5  1  0  0  0  0
 18 20  1  0  0  0  0
 18 31  1  0  0  0  0
 19 18  1  0  0  0  0
 21  4  1  0  0  0  0
 21 31  1  0  0  0  0
 21 23  1  0  0  0  0
 22 21  1  0  0  0  0
 24 10  1  0  0  0  0
 24  6  1  0  0  0  0
 25 24  1  0  0  0  0
 26 24  1  0  0  0  0
 27 28  1  0  0  0  0
 27 29  1  0  0  0  0
 29 30  1  0  0  0  0
 31 32  1  0  0  0  0
 33 31  1  0  0  0  0
M  END
