1,2
 OpenBabel05122313053D

 30 33  0  0  0  0  0  0  0  0999 V2000
    2.5560   -0.4534   -0.0595 N   0  0  0  0  0  2  0  0  0  0  0  0
    1.5187    2.0239    0.0029 N   0  0  0  0  0  2  0  0  0  0  0  0
    4.6797    0.1827    0.2378 N   0  0  0  0  0  0  0  0  0  0  0  0
    5.4897    0.7856    0.3827 H   0  0  0  0  0  0  0  0  0  0  0  0
    3.3537   -1.5807   -0.1345 C   0  0  0  0  0  0  0  0  0  0  0  0
    3.0201   -2.9268   -0.3813 C   0  0  0  0  0  0  0  0  0  0  0  0
    1.9773   -3.2226   -0.5619 H   0  0  0  0  0  0  0  0  0  0  0  0
    4.0677   -3.8502   -0.4060 C   0  0  0  0  0  0  0  0  0  0  0  0
    3.8481   -4.9103   -0.5997 H   0  0  0  0  0  0  0  0  0  0  0  0
    5.4152   -3.4565   -0.1949 C   0  0  0  0  0  0  0  0  0  0  0  0
    6.2057   -4.2206   -0.2229 H   0  0  0  0  0  0  0  0  0  0  0  0
    5.7678   -2.1227    0.0380 C   0  0  0  0  0  0  0  0  0  0  0  0
    6.8147   -1.8238    0.1893 H   0  0  0  0  0  0  0  0  0  0  0  0
    4.7154   -1.1940    0.0600 C   0  0  0  0  0  0  0  0  0  0  0  0
    3.3724    0.5868    0.1506 C   0  0  0  0  0  0  0  0  0  0  0  0
    2.8453    1.9523    0.2102 C   0  0  0  0  0  0  0  0  0  0  0  0
    3.6458    3.1046    0.4379 C   0  0  0  0  0  0  0  0  0  0  0  0
    4.7268    3.0145    0.6167 H   0  0  0  0  0  0  0  0  0  0  0  0
    3.0381    4.3499    0.4346 C   0  0  0  0  0  0  0  0  0  0  0  0
    3.6304    5.2605    0.6118 H   0  0  0  0  0  0  0  0  0  0  0  0
    1.6408    4.4614    0.1933 C   0  0  0  0  0  0  0  0  0  0  0  0
    0.9003    3.2417   -0.0266 C   0  0  0  0  0  0  0  0  0  0  0  0
   -0.4965    3.3090   -0.2915 C   0  0  0  0  0  0  0  0  0  0  0  0
   -1.0393    2.3711   -0.4773 H   0  0  0  0  0  0  0  0  0  0  0  0
   -1.1362    4.5384   -0.3305 C   0  0  0  0  0  0  0  0  0  0  0  0
   -2.2146    4.5797   -0.5446 H   0  0  0  0  0  0  0  0  0  0  0  0
   -0.4134    5.7423   -0.1022 C   0  0  0  0  0  0  0  0  0  0  0  0
   -0.9406    6.7070   -0.1340 H   0  0  0  0  0  0  0  0  0  0  0  0
    0.9498    5.7055    0.1540 C   0  0  0  0  0  0  0  0  0  0  0  0
    1.5147    6.6342    0.3256 H   0  0  0  0  0  0  0  0  0  0  0  0
  1 15  1  0  0  0  0
  2 16  1  0  0  0  0
  3  4  1  0  0  0  0
  5  1  1  0  0  0  0
  5 14  1  0  0  0  0
  6  5  2  0  0  0  0
  7  6  1  0  0  0  0
  8  6  1  0  0  0  0
  8 10  2  0  0  0  0
  9  8  1  0  0  0  0
 10 12  1  0  0  0  0
 11 10  1  0  0  0  0
 12 14  2  0  0  0  0
 12 13  1  0  0  0  0
 14  3  1  0  0  0  0
 15 16  2  0  0  0  0
 15  3  1  0  0  0  0
 16 17  1  0  0  0  0
 17 18  1  0  0  0  0
 19 17  2  0  0  0  0
 19 20  1  0  0  0  0
 21 19  1  0  0  0  0
 22  2  1  0  0  0  0
 22 21  2  0  0  0  0
 23 22  1  0  0  0  0
 24 23  1  0  0  0  0
 25 23  2  0  0  0  0
 25 27  1  0  0  0  0
 26 25  1  0  0  0  0
 27 29  2  0  0  0  0
 28 27  1  0  0  0  0
 29 21  1  0  0  0  0
 29 30  1  0  0  0  0
M  END
