2,5
 OpenBabel05122313053D

 27 28  0  0  0  0  0  0  0  0999 V2000
   -0.4969    6.8172   -2.3233 Cl  0  0  0  0  0  0  0  0  0  0  0  0
   -1.2474   -0.5891    1.7110 N   0  0  0  0  0  2  0  0  0  0  0  0
   -2.7470    0.0559    3.2409 N   0  0  0  0  0  0  0  0  0  0  0  0
   -1.9521    1.6646    1.5891 N   0  0  0  0  0  0  0  0  0  0  0  0
   -1.1619    1.6265    0.5252 N   0  0  0  0  0  2  0  0  0  0  0  0
   -1.5473   -1.6779    2.4859 C   0  0  0  0  0  0  0  0  0  0  0  0
   -1.0707   -2.6504    2.3275 H   0  0  0  0  0  0  0  0  0  0  0  0
   -2.4857   -1.2870    3.4349 C   0  0  0  0  0  0  0  0  0  0  0  0
   -2.9723   -1.8538    4.2349 H   0  0  0  0  0  0  0  0  0  0  0  0
   -3.7520    0.8790    3.9086 C   0  0  0  0  0  0  0  0  0  0  0  0
   -3.9145    0.4453    4.9151 H   0  0  0  0  0  0  0  0  0  0  0  0
   -3.3117    1.8864    4.0478 H   0  0  0  0  0  0  0  0  0  0  0  0
   -5.0556    0.9646    3.1163 C   0  0  0  0  0  0  0  0  0  0  0  0
   -4.8780    1.4343    2.1287 H   0  0  0  0  0  0  0  0  0  0  0  0
   -5.7943    1.5833    3.6626 H   0  0  0  0  0  0  0  0  0  0  0  0
   -5.4946   -0.0407    2.9572 H   0  0  0  0  0  0  0  0  0  0  0  0
   -1.9793    0.4578    2.1764 C   0  0  0  0  0  0  0  0  0  0  0  0
   -1.0165    2.8684   -0.1408 C   0  0  0  0  0  0  0  0  0  0  0  0
   -0.7824    2.8843   -1.5316 C   0  0  0  0  0  0  0  0  0  0  0  0
   -0.7397    1.9342   -2.0787 H   0  0  0  0  0  0  0  0  0  0  0  0
   -0.6325    4.0981   -2.2071 C   0  0  0  0  0  0  0  0  0  0  0  0
   -0.4631    4.1191   -3.2924 H   0  0  0  0  0  0  0  0  0  0  0  0
   -0.7032    5.3048   -1.4882 C   0  0  0  0  0  0  0  0  0  0  0  0
   -0.9371    5.3019   -0.1007 C   0  0  0  0  0  0  0  0  0  0  0  0
   -0.9789    6.2543    0.4460 H   0  0  0  0  0  0  0  0  0  0  0  0
   -1.1010    4.0869    0.5680 C   0  0  0  0  0  0  0  0  0  0  0  0
   -1.2780    4.0578    1.6511 H   0  0  0  0  0  0  0  0  0  0  0  0
  1 23  1  0  0  0  0
  2 17  1  0  0  0  0
  2  6  1  0  0  0  0
  3  8  1  0  0  0  0
  3 10  1  0  0  0  0
  4 17  2  0  0  0  0
  5  4  1  0  0  0  0
  6  8  2  0  0  0  0
  7  6  1  0  0  0  0
  8  9  1  0  0  0  0
 10 12  1  0  0  0  0
 10 11  1  0  0  0  0
 13 15  1  0  0  0  0
 13 10  1  0  0  0  0
 14 13  1  0  0  0  0
 16 13  1  0  0  0  0
 17  3  1  0  0  0  0
 18  5  1  0  0  0  0
 18 26  1  0  0  0  0
 19 18  2  0  0  0  0
 20 19  1  0  0  0  0
 21 19  1  0  0  0  0
 21 23  2  0  0  0  0
 22 21  1  0  0  0  0
 23 24  1  0  0  0  0
 24 25  1  0  0  0  0
 24 26  2  0  0  0  0
 26 27  1  0  0  0  0
M  END
