1,2
 OpenBabel05122313053D

 41 43  0  0  0  0  0  0  0  0999 V2000
   -1.5937    1.1061   -1.3869 N   0  0  0  0  0  0  0  0  0  0  0  0
    0.0362    0.6750    0.6425 N   0  0  0  0  0  2  0  0  0  0  0  0
   -1.7946    1.9301   -0.1850 C   0  0  0  0  0  0  0  0  0  0  0  0
   -2.7656    2.9286   -0.0851 C   0  0  0  0  0  0  0  0  0  0  0  0
   -3.4709    3.0968   -0.9122 H   0  0  0  0  0  0  0  0  0  0  0  0
   -2.8449    3.7233    1.0734 C   0  0  0  0  0  0  0  0  0  0  0  0
   -3.6181    4.4997    1.1608 H   0  0  0  0  0  0  0  0  0  0  0  0
   -1.9128    3.5135    2.1055 C   0  0  0  0  0  0  0  0  0  0  0  0
   -1.9518    4.1392    3.0112 H   0  0  0  0  0  0  0  0  0  0  0  0
   -0.9300    2.5212    2.0111 C   0  0  0  0  0  0  0  0  0  0  0  0
   -0.2087    2.3736    2.8268 H   0  0  0  0  0  0  0  0  0  0  0  0
   -0.8656    1.6793    0.8620 C   0  0  0  0  0  0  0  0  0  0  0  0
    0.9782    0.3275    1.6256 C   0  0  0  0  0  0  0  0  0  0  0  0
    2.3766    0.4859    1.3841 C   0  0  0  0  0  0  0  0  0  0  0  0
    3.2902   -0.0193    2.3345 C   0  0  0  0  0  0  0  0  0  0  0  0
    4.3679    0.1057    2.1483 H   0  0  0  0  0  0  0  0  0  0  0  0
    2.8578   -0.6276    3.5203 C   0  0  0  0  0  0  0  0  0  0  0  0
    3.5944   -0.9993    4.2484 H   0  0  0  0  0  0  0  0  0  0  0  0
    1.4819   -0.7387    3.7795 C   0  0  0  0  0  0  0  0  0  0  0  0
    1.1269   -1.2075    4.7103 H   0  0  0  0  0  0  0  0  0  0  0  0
    0.5591   -0.2720    2.8363 C   0  0  0  0  0  0  0  0  0  0  0  0
   -0.5207   -0.3947    3.0045 H   0  0  0  0  0  0  0  0  0  0  0  0
    2.8775    1.1670    0.1632 C   0  0  0  0  0  0  0  0  0  0  0  0
    2.3008    2.3776   -0.2875 C   0  0  0  0  0  0  0  0  0  0  0  0
    1.4745    2.8268    0.2814 H   0  0  0  0  0  0  0  0  0  0  0  0
    2.7917    3.0239   -1.4297 C   0  0  0  0  0  0  0  0  0  0  0  0
    2.3337    3.9703   -1.7565 H   0  0  0  0  0  0  0  0  0  0  0  0
    3.8658    2.4763   -2.1521 C   0  0  0  0  0  0  0  0  0  0  0  0
    4.2438    2.9820   -3.0536 H   0  0  0  0  0  0  0  0  0  0  0  0
    4.4605    1.2867   -1.7059 C   0  0  0  0  0  0  0  0  0  0  0  0
    5.3088    0.8525   -2.2573 H   0  0  0  0  0  0  0  0  0  0  0  0
    3.9731    0.6432   -0.5581 C   0  0  0  0  0  0  0  0  0  0  0  0
    4.4321   -0.2989   -0.2229 H   0  0  0  0  0  0  0  0  0  0  0  0
   -2.8816    0.6279   -1.9453 C   0  0  0  0  0  0  0  0  0  0  0  0
   -3.4613    0.1331   -1.1479 H   0  0  0  0  0  0  0  0  0  0  0  0
   -2.6659   -0.0940   -2.7531 H   0  0  0  0  0  0  0  0  0  0  0  0
   -3.4711    1.4798   -2.3461 H   0  0  0  0  0  0  0  0  0  0  0  0
   -0.8480    1.8780   -2.4226 C   0  0  0  0  0  0  0  0  0  0  0  0
   -1.4453    2.7588   -2.7463 H   0  0  0  0  0  0  0  0  0  0  0  0
   -0.6496    1.2074   -3.2800 H   0  0  0  0  0  0  0  0  0  0  0  0
    0.1123    2.2212   -1.9970 H   0  0  0  0  0  0  0  0  0  0  0  0
  1  3  1  0  0  0  0
  2 12  1  0  0  0  0
  2 13  1  0  0  0  0
  3  4  2  0  0  0  0
  3 12  1  0  0  0  0
  4  6  1  0  0  0  0
  5  4  1  0  0  0  0
  6  7  1  0  0  0  0
  6  8  2  0  0  0  0
  8  9  1  0  0  0  0
 10  8  1  0  0  0  0
 10 11  1  0  0  0  0
 12 10  2  0  0  0  0
 13 21  1  0  0  0  0
 14 13  2  0  0  0  0
 14 15  1  0  0  0  0
 15 17  2  0  0  0  0
 16 15  1  0  0  0  0
 17 19  1  0  0  0  0
 17 18  1  0  0  0  0
 19 20  1  0  0  0  0
 21 22  1  0  0  0  0
 21 19  2  0  0  0  0
 23 14  1  0  0  0  0
 24 23  1  0  0  0  0
 24 25  1  0  0  0  0
 26 24  2  0  0  0  0
 27 26  1  0  0  0  0
 28 30  2  0  0  0  0
 28 26  1  0  0  0  0
 29 28  1  0  0  0  0
 30 32  1  0  0  0  0
 31 30  1  0  0  0  0
 32 33  1  0  0  0  0
 32 23  2  0  0  0  0
 34  1  1  0  0  0  0
 34 35  1  0  0  0  0
 36 34  1  0  0  0  0
 37 34  1  0  0  0  0
 38 41  1  0  0  0  0
 38  1  1  0  0  0  0
 39 38  1  0  0  0  0
 40 38  1  0  0  0  0
M  END
