1,3
 OpenBabel05122313053D

 24 25  0  0  1  0  0  0  0  0999 V2000
    1.8318    0.6507    0.0500 N   0  0  0  0  0  2  0  0  0  0  0  0
    2.6654    0.0637    0.8293 N   0  0  0  0  0  2  0  0  0  0  0  0
    0.8738   -1.4961    1.3061 N   0  0  0  0  0  2  0  0  0  0  0  0
    2.8711   -1.8610    2.2482 N   0  0  0  0  0  0  0  0  0  0  0  0
    2.3419    1.7382   -0.6762 C   0  0  0  0  0  0  0  0  0  0  0  0
    1.4084    2.6387   -1.2376 C   0  0  0  0  0  0  0  0  0  0  0  0
    0.3357    2.4417   -1.1042 H   0  0  0  0  0  0  0  0  0  0  0  0
    1.8685    3.7432   -1.9629 C   0  0  0  0  0  0  0  0  0  0  0  0
    1.1440    4.4493   -2.3951 H   0  0  0  0  0  0  0  0  0  0  0  0
    3.2469    3.9408   -2.1518 C   0  0  0  0  0  0  0  0  0  0  0  0
    3.6039    4.8034   -2.7350 H   0  0  0  0  0  0  0  0  0  0  0  0
    4.1734    3.0255   -1.6150 C   0  0  0  0  0  0  0  0  0  0  0  0
    5.2507    3.1689   -1.7894 H   0  0  0  0  0  0  0  0  0  0  0  0
    3.7314    1.9264   -0.8760 C   0  0  0  0  0  0  0  0  0  0  0  0
    4.4265    1.1776   -0.4729 H   0  0  0  0  0  0  0  0  0  0  0  0
    2.1285   -1.0406    1.4355 C   0  0  1  0  0  3  0  0  0  0  0  0
    2.0441   -2.8915    2.6285 C   0  0  0  0  0  0  0  0  0  0  0  0
    2.3933   -3.7029    3.2751 H   0  0  0  0  0  0  0  0  0  0  0  0
    0.8050   -2.6431    2.0370 C   0  0  0  0  0  0  0  0  0  0  0  0
   -0.1155   -3.2344    2.1021 H   0  0  0  0  0  0  0  0  0  0  0  0
    4.3083   -1.7610    2.4317 C   0  0  0  0  0  0  0  0  0  0  0  0
    4.8135   -2.1837    1.5366 H   0  0  0  0  0  0  0  0  0  0  0  0
    4.6040   -2.3093    3.3443 H   0  0  0  0  0  0  0  0  0  0  0  0
    4.5894   -0.6965    2.5193 H   0  0  0  0  0  0  0  0  0  0  0  0
  1  2  1  0  0  0  0
  3 16  1  0  0  0  0
  3 19  1  0  0  0  0
  4 21  1  0  0  0  0
  4 17  1  0  0  0  0
  5  1  1  0  0  0  0
  6  7  1  0  0  0  0
  6  5  2  0  0  0  0
  8  6  1  0  0  0  0
  9  8  1  0  0  0  0
 10  8  2  0  0  0  0
 10 12  1  0  0  0  0
 11 10  1  0  0  0  0
 12 14  2  0  0  0  0
 13 12  1  0  0  0  0
 14  5  1  0  0  0  0
 14 15  1  0  0  0  0
 16  2  1  6  0  0  0
 16  4  1  0  0  0  0
 17 18  1  0  0  0  0
 19 20  1  0  0  0  0
 19 17  2  0  0  0  0
 21 24  1  0  0  0  0
 21 23  1  0  0  0  0
 22 21  1  0  0  0  0
M  END
