1,4
 OpenBabel05122313053D

 50 53  0  0  1  0  0  0  0  0999 V2000
    0.1676    0.0796   -0.2882 N   0  0  0  0  0  2  0  0  0  0  0  0
    1.4002    2.2529   -1.3068 N   0  0  0  0  0  2  0  0  0  0  0  0
   -0.9622    0.8240   -0.2616 C   0  0  1  0  0  3  0  0  0  0  0  0
   -2.0163    0.0180    0.1071 N   0  0  0  0  0  2  0  0  0  0  0  0
    1.6519    0.8188   -0.5417 P   0  0  0  0  0  4  0  0  0  0  0  0
   -0.9862    2.2408   -0.5512 C   0  0  0  0  0  0  0  0  0  0  0  0
    0.1956    2.8498   -1.1653 C   0  0  0  0  0  0  0  0  0  0  0  0
    0.0631    4.2007   -1.6374 C   0  0  0  0  0  0  0  0  0  0  0  0
   -1.0759    4.9455   -1.3891 C   0  0  0  0  0  0  0  0  0  0  0  0
   -2.1668    4.3870   -0.6683 C   0  0  0  0  0  0  0  0  0  0  0  0
   -2.1123    3.0583   -0.2717 C   0  0  0  0  0  0  0  0  0  0  0  0
    2.6760   -0.3024   -1.5142 C   0  0  0  0  0  0  0  0  0  0  0  0
    4.0715   -0.1032   -1.5450 C   0  0  0  0  0  0  0  0  0  0  0  0
    4.8704   -0.9368   -2.3388 C   0  0  0  0  0  0  0  0  0  0  0  0
    4.2810   -1.9704   -3.0866 C   0  0  0  0  0  0  0  0  0  0  0  0
    2.8918   -2.1688   -3.0467 C   0  0  0  0  0  0  0  0  0  0  0  0
    2.0808   -1.3326   -2.2662 C   0  0  0  0  0  0  0  0  0  0  0  0
    2.5195    1.1085    1.0286 C   0  0  0  0  0  0  0  0  0  0  0  0
    2.8962    0.0180    1.8394 C   0  0  0  0  0  0  0  0  0  0  0  0
    3.5071    0.2606    3.0765 C   0  0  0  0  0  0  0  0  0  0  0  0
    3.7472    1.5790    3.4994 C   0  0  0  0  0  0  0  0  0  0  0  0
    3.3754    2.6623    2.6870 C   0  0  0  0  0  0  0  0  0  0  0  0
    2.7574    2.4311    1.4492 C   0  0  0  0  0  0  0  0  0  0  0  0
   -3.8158    0.1359   -0.2471 Si  0  0  0  0  0  0  0  0  0  0  0  0
   -4.0299    0.9917   -1.9144 C   0  0  0  0  0  0  0  0  0  0  0  0
   -4.6673    0.9565    1.2261 C   0  0  0  0  0  0  0  0  0  0  0  0
   -4.5460   -1.5864   -0.4200 C   0  0  0  0  0  0  0  0  0  0  0  0
    0.9349    4.6287   -2.1526 H   0  0  0  0  0  0  0  0  0  0  0  0
   -1.1268    5.9913   -1.7299 H   0  0  0  0  0  0  0  0  0  0  0  0
   -3.0462    5.0013   -0.4274 H   0  0  0  0  0  0  0  0  0  0  0  0
   -2.9453    2.6307    0.2977 H   0  0  0  0  0  0  0  0  0  0  0  0
    4.5301    0.6967   -0.9437 H   0  0  0  0  0  0  0  0  0  0  0  0
    5.9599   -0.7851   -2.3676 H   0  0  0  0  0  0  0  0  0  0  0  0
    4.9126   -2.6301   -3.7009 H   0  0  0  0  0  0  0  0  0  0  0  0
    2.4303   -2.9851   -3.6220 H   0  0  0  0  0  0  0  0  0  0  0  0
    0.9928   -1.4922   -2.2224 H   0  0  0  0  0  0  0  0  0  0  0  0
    2.6972   -1.0143    1.5117 H   0  0  0  0  0  0  0  0  0  0  0  0
    3.7924   -0.5869    3.7175 H   0  0  0  0  0  0  0  0  0  0  0  0
    4.2280    1.7632    4.4723 H   0  0  0  0  0  0  0  0  0  0  0  0
    3.5665    3.6939    3.0192 H   0  0  0  0  0  0  0  0  0  0  0  0
    2.4628    3.2670    0.7966 H   0  0  0  0  0  0  0  0  0  0  0  0
   -3.7236    2.0529   -1.9437 H   0  0  0  0  0  0  0  0  0  0  0  0
   -5.0991    0.9262   -2.2048 H   0  0  0  0  0  0  0  0  0  0  0  0
   -3.4404    0.4373   -2.6735 H   0  0  0  0  0  0  0  0  0  0  0  0
   -5.7658    0.8602    1.1001 H   0  0  0  0  0  0  0  0  0  0  0  0
   -4.4383    2.0275    1.3852 H   0  0  0  0  0  0  0  0  0  0  0  0
   -4.3836    0.4081    2.1478 H   0  0  0  0  0  0  0  0  0  0  0  0
   -5.5900   -1.4656   -0.7786 H   0  0  0  0  0  0  0  0  0  0  0  0
   -4.5648   -2.1369    0.5389 H   0  0  0  0  0  0  0  0  0  0  0  0
   -3.9893   -2.1942   -1.1597 H   0  0  0  0  0  0  0  0  0  0  0  0
  1  3  1  0  0  0  0
  2  7  1  0  0  0  0
  2  5  1  0  0  0  0
  3  4  1  1  0  0  0
  5  1  1  0  0  0  0
  5 18  1  0  0  0  0
  6 11  1  0  0  0  0
  6  3  1  0  0  0  0
  7  6  2  0  0  0  0
  8  9  2  0  0  0  0
  8  7  1  0  0  0  0
  9 10  1  0  0  0  0
 10 30  1  0  0  0  0
 10 11  2  0  0  0  0
 11 31  1  0  0  0  0
 12  5  1  0  0  0  0
 13 12  1  0  0  0  0
 13 32  1  0  0  0  0
 14 13  2  0  0  0  0
 15 16  2  0  0  0  0
 15 14  1  0  0  0  0
 16 17  1  0  0  0  0
 17 36  1  0  0  0  0
 17 12  2  0  0  0  0
 18 23  2  0  0  0  0
 18 19  1  0  0  0  0
 19 20  2  0  0  0  0
 20 21  1  0  0  0  0
 20 38  1  0  0  0  0
 21 39  1  0  0  0  0
 22 40  1  0  0  0  0
 22 21  2  0  0  0  0
 23 22  1  0  0  0  0
 24  4  1  0  0  0  0
 24 26  1  0  0  0  0
 25 24  1  0  0  0  0
 26 46  1  0  0  0  0
 26 47  1  0  0  0  0
 27 24  1  0  0  0  0
 27 49  1  0  0  0  0
 28  8  1  0  0  0  0
 29  9  1  0  0  0  0
 33 14  1  0  0  0  0
 34 15  1  0  0  0  0
 35 16  1  0  0  0  0
 37 19  1  0  0  0  0
 41 23  1  0  0  0  0
 42 25  1  0  0  0  0
 43 25  1  0  0  0  0
 44 25  1  0  0  0  0
 45 26  1  0  0  0  0
 48 27  1  0  0  0  0
 50 27  1  0  0  0  0
M  END
