1,2
 OpenBabel05122313053D

 20 20  0  0  0  0  0  0  0  0999 V2000
    1.5257   -1.3047   -0.0002 N   0  0  0  0  0  2  0  0  0  0  0  0
    1.5668    1.3101    0.0000 N   0  0  0  0  0  2  0  0  0  0  0  0
    1.4399    2.5432    0.0001 O   0  0  0  0  0  1  0  0  0  0  0  0
    2.7363   -0.7552   -0.0001 C   0  0  0  0  0  0  0  0  0  0  0  0
    2.7989    0.6949    0.0000 C   0  0  0  0  0  0  0  0  0  0  0  0
    4.0337    1.4011    0.0001 C   0  0  0  0  0  0  0  0  0  0  0  0
    5.2242    0.6965    0.0001 C   0  0  0  0  0  0  0  0  0  0  0  0
    5.1663   -0.7440    0.0001 C   0  0  0  0  0  0  0  0  0  0  0  0
    3.9926   -1.4775   -0.0000 C   0  0  0  0  0  0  0  0  0  0  0  0
    6.5657    1.3805    0.0003 C   0  0  0  0  0  0  0  0  0  0  0  0
    3.9678   -2.9794   -0.0001 C   0  0  0  0  0  0  0  0  0  0  0  0
    1.4410   -2.3252   -0.0003 H   0  0  0  0  0  0  0  0  0  0  0  0
    3.9987    2.4995    0.0002 H   0  0  0  0  0  0  0  0  0  0  0  0
    6.1209   -1.2970    0.0001 H   0  0  0  0  0  0  0  0  0  0  0  0
    7.1656    1.0951   -0.8900 H   0  0  0  0  0  0  0  0  0  0  0  0
    6.4598    2.4820    0.0001 H   0  0  0  0  0  0  0  0  0  0  0  0
    7.1653    1.0954    0.8909 H   0  0  0  0  0  0  0  0  0  0  0  0
    4.9900   -3.4017    0.0003 H   0  0  0  0  0  0  0  0  0  0  0  0
    3.4348   -3.3766    0.8912 H   0  0  0  0  0  0  0  0  0  0  0  0
    3.4355   -3.3765   -0.8919 H   0  0  0  0  0  0  0  0  0  0  0  0
  1  4  1  0  0  0  0
  2  5  1  0  0  0  0
  2  3  1  0  0  0  0
  4  9  2  0  0  0  0
  4  5  1  0  0  0  0
  5  6  2  0  0  0  0
  6  7  1  0  0  0  0
  6 13  1  0  0  0  0
  7 10  1  0  0  0  0
  8 14  1  0  0  0  0
  8  7  2  0  0  0  0
  9  8  1  0  0  0  0
 10 17  1  0  0  0  0
 11  9  1  0  0  0  0
 11 18  1  0  0  0  0
 11 19  1  0  0  0  0
 12  1  1  0  0  0  0
 15 10  1  0  0  0  0
 16 10  1  0  0  0  0
 20 11  1  0  0  0  0
M  END
