1,4
 OpenBabel05122313053D

 37 40  0  0  1  0  0  0  0  0999 V2000
    1.4663    0.2304   -0.6227 N   0  0  0  0  0  2  0  0  0  0  0  0
    3.3831    1.2998   -0.7168 N   0  0  0  0  0  0  0  0  0  0  0  0
    4.0456    2.0438   -0.9425 H   0  0  0  0  0  0  0  0  0  0  0  0
    0.7637   -2.1649    0.3369 N   0  0  0  0  0  2  0  0  0  0  0  0
    5.5184   -1.6503   -0.5100 N   0  0  0  0  0  0  0  0  0  0  0  0
    0.2840   -3.3683    0.7165 C   0  0  0  0  0  3  0  0  0  0  0  0
   -0.7825   -3.3932    0.9869 H   0  0  0  0  0  0  0  0  0  0  0  0
    1.0839   -4.5139    0.7693 C   0  0  0  0  0  0  0  0  0  0  0  0
    0.6452   -5.4693    1.0894 H   0  0  0  0  0  0  0  0  0  0  0  0
    2.4324   -4.4083    0.3981 C   0  0  0  0  0  0  0  0  0  0  0  0
    3.0884   -5.2913    0.4119 H   0  0  0  0  0  0  0  0  0  0  0  0
    2.9373   -3.1668   -0.0030 C   0  0  0  0  0  0  0  0  0  0  0  0
    3.9820   -3.0162   -0.3185 H   0  0  0  0  0  0  0  0  0  0  0  0
    2.0830   -2.0480   -0.0152 C   0  0  0  0  0  0  0  0  0  0  0  0
    2.4880   -0.6902   -0.3910 C   0  0  0  0  0  0  0  0  0  0  0  0
    3.7258   -0.0175   -0.4557 C   0  0  0  0  0  0  0  0  0  0  0  0
    5.1395   -0.3776   -0.2654 C   0  0  0  0  0  0  0  0  0  0  0  0
    6.0702    0.6087    0.1461 C   0  0  0  0  0  0  0  0  0  0  0  0
    5.7446    1.6284    0.4008 H   0  0  0  0  0  0  0  0  0  0  0  0
    7.4197    0.2607    0.2688 C   0  0  0  0  0  0  0  0  0  0  0  0
    8.1588    1.0109    0.5871 H   0  0  0  0  0  0  0  0  0  0  0  0
    7.8077   -1.0584   -0.0044 C   0  0  0  0  0  0  0  0  0  0  0  0
    8.8567   -1.3768    0.0778 H   0  0  0  0  0  0  0  0  0  0  0  0
    6.8109   -1.9752   -0.3753 C   0  0  0  0  0  0  0  0  0  0  0  0
    7.0708   -3.0283   -0.5796 H   0  0  0  0  0  0  0  0  0  0  0  0
    2.0268    1.4303   -0.8246 C   0  0  2  0  0  3  0  0  0  0  0  0
    1.3707    2.7094   -1.1037 C   0  0  0  0  0  0  0  0  0  0  0  0
    1.7868    3.8728   -0.4173 C   0  0  0  0  0  0  0  0  0  0  0  0
    2.5754    3.8064    0.3484 H   0  0  0  0  0  0  0  0  0  0  0  0
    1.1602    5.0996   -0.6712 C   0  0  0  0  0  0  0  0  0  0  0  0
    1.4750    5.9991   -0.1220 H   0  0  0  0  0  0  0  0  0  0  0  0
    0.1234    5.1758   -1.6150 C   0  0  0  0  0  0  0  0  0  0  0  0
   -0.3708    6.1387   -1.8113 H   0  0  0  0  0  0  0  0  0  0  0  0
   -0.2879    4.0236   -2.3047 C   0  0  0  0  0  0  0  0  0  0  0  0
   -1.1016    4.0822   -3.0420 H   0  0  0  0  0  0  0  0  0  0  0  0
    0.3292    2.7929   -2.0520 C   0  0  0  0  0  0  0  0  0  0  0  0
    0.0107    1.8903   -2.5903 H   0  0  0  0  0  0  0  0  0  0  0  0
  1 15  1  0  0  0  0
  2 16  1  0  0  0  0
  3  2  1  0  0  0  0
  4  6  1  0  0  0  0
  5 24  2  0  0  0  0
  5 17  1  0  0  0  0
  6  8  1  0  0  0  0
  6  7  1  0  0  0  0
  8  9  1  0  0  0  0
 10 11  1  0  0  0  0
 10  8  2  0  0  0  0
 12 10  1  0  0  0  0
 13 12  1  0  0  0  0
 14 12  2  0  0  0  0
 14  4  1  0  0  0  0
 15 14  1  0  0  0  0
 16 15  2  0  0  0  0
 16 17  1  0  0  0  0
 17 18  2  0  0  0  0
 18 20  1  0  0  0  0
 18 19  1  0  0  0  0
 20 21  1  0  0  0  0
 22 23  1  0  0  0  0
 22 20  2  0  0  0  0
 24 22  1  0  0  0  0
 25 24  1  0  0  0  0
 26 27  1  1  0  0  0
 26  2  1  0  0  0  0
 26  1  1  0  0  0  0
 27 28  1  0  0  0  0
 28 29  1  0  0  0  0
 30 28  2  0  0  0  0
 30 31  1  0  0  0  0
 32 30  1  0  0  0  0
 33 32  1  0  0  0  0
 34 36  1  0  0  0  0
 34 32  2  0  0  0  0
 35 34  1  0  0  0  0
 36 27  2  0  0  0  0
 37 36  1  0  0  0  0
M  END
