1,2
 OpenBabel05122313053D

 33 34  0  0  1  0  0  0  0  0999 V2000
   -1.1272    0.5077    0.2642 N   0  0  0  0  0  2  0  0  0  0  0  0
    0.8122    1.4124   -1.2080 N   0  0  0  0  0  2  0  0  0  0  0  0
   -2.1023   -0.1228    1.1834 C   0  0  1  0  0  0  0  0  0  0  0  0
   -2.0394    0.4904    2.5881 C   0  0  0  0  0  0  0  0  0  0  0  0
   -3.4877   -0.2576    0.5523 C   0  0  0  0  0  0  0  0  0  0  0  0
   -3.5995   -0.5373   -0.8271 C   0  0  0  0  0  0  0  0  0  0  0  0
   -4.8551   -0.7253   -1.4207 C   0  0  0  0  0  0  0  0  0  0  0  0
   -6.0243   -0.6406   -0.6470 C   0  0  0  0  0  0  0  0  0  0  0  0
   -5.9239   -0.3672    0.7248 C   0  0  0  0  0  0  0  0  0  0  0  0
   -4.6658   -0.1770    1.3199 C   0  0  0  0  0  0  0  0  0  0  0  0
   -1.2856    1.7723   -0.1244 C   0  0  0  0  0  0  0  0  0  0  0  0
   -0.2105    2.3001   -0.9319 C   0  0  0  0  0  0  0  0  0  0  0  0
   -0.1369    3.6410   -1.3802 C   0  0  0  0  0  0  0  0  0  0  0  0
    0.9663    4.0759   -2.1068 C   0  0  0  0  0  0  0  0  0  0  0  0
    2.0116    3.1613   -2.3610 C   0  0  0  0  0  0  0  0  0  0  0  0
    1.9009    1.8606   -1.8839 C   0  0  0  0  0  0  0  0  0  0  0  0
   -2.4400    2.6653    0.2390 C   0  0  0  0  0  0  0  0  0  0  0  0
   -1.7406   -1.1624    1.3043 H   0  0  0  0  0  0  0  0  0  0  0  0
   -0.9762    0.5904    2.8851 H   0  0  0  0  0  0  0  0  0  0  0  0
   -2.5154    1.4877    2.6480 H   0  0  0  0  0  0  0  0  0  0  0  0
   -2.5405   -0.1749    3.3182 H   0  0  0  0  0  0  0  0  0  0  0  0
   -2.6845   -0.5961   -1.4370 H   0  0  0  0  0  0  0  0  0  0  0  0
   -4.9212   -0.9401   -2.4984 H   0  0  0  0  0  0  0  0  0  0  0  0
   -7.0105   -0.7865   -1.1129 H   0  0  0  0  0  0  0  0  0  0  0  0
   -6.8328   -0.2975    1.3419 H   0  0  0  0  0  0  0  0  0  0  0  0
   -4.6070    0.0401    2.3961 H   0  0  0  0  0  0  0  0  0  0  0  0
   -0.9515    4.3349   -1.1354 H   0  0  0  0  0  0  0  0  0  0  0  0
    1.0294    5.1155   -2.4597 H   0  0  0  0  0  0  0  0  0  0  0  0
    2.9129    3.4586   -2.9149 H   0  0  0  0  0  0  0  0  0  0  0  0
    2.7131    1.1345   -2.0272 H   0  0  0  0  0  0  0  0  0  0  0  0
   -3.2944    2.1034    0.6483 H   0  0  0  0  0  0  0  0  0  0  0  0
   -2.1309    3.4271    0.9861 H   0  0  0  0  0  0  0  0  0  0  0  0
   -2.8045    3.2080   -0.6559 H   0  0  0  0  0  0  0  0  0  0  0  0
  1  3  1  0  0  0  0
  2 12  1  0  0  0  0
  3 18  1  1  0  0  0
  3  4  1  0  0  0  0
  4 20  1  0  0  0  0
  4 19  1  0  0  0  0
  4 21  1  0  0  0  0
  5  3  1  0  0  0  0
  5 10  1  0  0  0  0
  6  5  2  0  0  0  0
  7  6  1  0  0  0  0
  7  8  2  0  0  0  0
  8  9  1  0  0  0  0
  9 10  2  0  0  0  0
  9 25  1  0  0  0  0
 10 26  1  0  0  0  0
 11 17  1  0  0  0  0
 11  1  1  0  0  0  0
 12 11  2  0  0  0  0
 13 27  1  0  0  0  0
 13 12  1  0  0  0  0
 14 13  2  0  0  0  0
 15 14  1  0  0  0  0
 15 16  2  0  0  0  0
 16  2  1  0  0  0  0
 17 31  1  0  0  0  0
 17 32  1  0  0  0  0
 22  6  1  0  0  0  0
 23  7  1  0  0  0  0
 24  8  1  0  0  0  0
 28 14  1  0  0  0  0
 29 15  1  0  0  0  0
 30 16  1  0  0  0  0
 33 17  1  0  0  0  0
M  END
