3,4
 OpenBabel05122313053D

 44 46  0  0  0  0  0  0  0  0999 V2000
    2.0756    1.2622    0.6728 O   0  0  0  0  0  0  0  0  0  0  0  0
   -2.0752   -1.2620    0.6725 O   0  0  0  0  0  0  0  0  0  0  0  0
    0.8359   -1.7056    0.2986 N   0  0  0  0  0  0  0  0  0  0  0  0
   -0.8358    1.7057    0.2988 N   0  0  0  0  0  0  0  0  0  0  0  0
    3.0221    0.6292   -0.0802 C   0  0  0  0  0  0  0  0  0  0  0  0
    3.8834    1.3286   -0.9455 C   0  0  0  0  0  0  0  0  0  0  0  0
    4.8653    0.6454   -1.6772 C   0  0  0  0  0  0  0  0  0  0  0  0
    4.9961   -0.7438   -1.5541 C   0  0  0  0  0  0  0  0  0  0  0  0
    4.1271   -1.4378   -0.6991 C   0  0  0  0  0  0  0  0  0  0  0  0
    3.1271   -0.7888    0.0485 C   0  0  0  0  0  0  0  0  0  0  0  0
    2.1966   -1.6208    0.9081 C   0  0  0  0  0  0  0  0  0  0  0  0
   -0.1253   -2.6743    0.8717 C   0  0  0  0  0  0  0  0  0  0  0  0
   -1.5124   -2.5051    0.2414 C   0  0  0  0  0  0  0  0  0  0  0  0
   -3.0217   -0.6290   -0.0805 C   0  0  0  0  0  0  0  0  0  0  0  0
   -3.8829   -1.3283   -0.9458 C   0  0  0  0  0  0  0  0  0  0  0  0
   -4.8649   -0.6452   -1.6775 C   0  0  0  0  0  0  0  0  0  0  0  0
   -4.9958    0.7439   -1.5542 C   0  0  0  0  0  0  0  0  0  0  0  0
   -4.1269    1.4380   -0.6991 C   0  0  0  0  0  0  0  0  0  0  0  0
   -3.1269    0.7890    0.0485 C   0  0  0  0  0  0  0  0  0  0  0  0
   -2.1966    1.6210    0.9082 C   0  0  0  0  0  0  0  0  0  0  0  0
    0.1255    2.6742    0.8722 C   0  0  0  0  0  0  0  0  0  0  0  0
    1.5126    2.5052    0.2418 C   0  0  0  0  0  0  0  0  0  0  0  0
    3.7954    2.4199   -1.0379 H   0  0  0  0  0  0  0  0  0  0  0  0
    5.5340    1.2109   -2.3438 H   0  0  0  0  0  0  0  0  0  0  0  0
    5.7652   -1.2870   -2.1220 H   0  0  0  0  0  0  0  0  0  0  0  0
    4.2165   -2.5324   -0.6068 H   0  0  0  0  0  0  0  0  0  0  0  0
   -3.7948   -2.4196   -1.0383 H   0  0  0  0  0  0  0  0  0  0  0  0
   -5.5335   -1.2107   -2.3441 H   0  0  0  0  0  0  0  0  0  0  0  0
   -5.7650    1.2872   -2.1221 H   0  0  0  0  0  0  0  0  0  0  0  0
   -4.2164    2.5326   -0.6067 H   0  0  0  0  0  0  0  0  0  0  0  0
    0.9406   -1.8775   -0.7172 H   0  0  0  0  0  0  0  0  0  0  0  0
    2.6218   -2.6447    1.0081 H   0  0  0  0  0  0  0  0  0  0  0  0
    2.0608   -1.1881    1.9200 H   0  0  0  0  0  0  0  0  0  0  0  0
    0.2181   -3.7220    0.7062 H   0  0  0  0  0  0  0  0  0  0  0  0
   -0.1882   -2.4784    1.9605 H   0  0  0  0  0  0  0  0  0  0  0  0
   -1.4395   -2.5153   -0.8696 H   0  0  0  0  0  0  0  0  0  0  0  0
   -2.1604   -3.3514    0.5620 H   0  0  0  0  0  0  0  0  0  0  0  0
   -0.9404    1.8777   -0.7169 H   0  0  0  0  0  0  0  0  0  0  0  0
   -2.6218    2.6449    1.0082 H   0  0  0  0  0  0  0  0  0  0  0  0
   -2.0609    1.1881    1.9200 H   0  0  0  0  0  0  0  0  0  0  0  0
   -0.2178    3.7219    0.7070 H   0  0  0  0  0  0  0  0  0  0  0  0
    0.1884    2.4779    1.9610 H   0  0  0  0  0  0  0  0  0  0  0  0
    2.1605    3.3516    0.5625 H   0  0  0  0  0  0  0  0  0  0  0  0
    1.4396    2.5155   -0.8692 H   0  0  0  0  0  0  0  0  0  0  0  0
  3 12  1  0  0  0  0
  3 11  1  0  0  0  0
  4 21  1  0  0  0  0
  4 20  1  0  0  0  0
  5 10  1  0  0  0  0
  5  1  1  0  0  0  0
  6  5  2  0  0  0  0
  7  8  2  0  0  0  0
  7  6  1  0  0  0  0
  8  9  1  0  0  0  0
  9 26  1  0  0  0  0
  9 10  2  0  0  0  0
 10 11  1  0  0  0  0
 11 32  1  0  0  0  0
 11 33  1  0  0  0  0
 12 35  1  0  0  0  0
 13 37  1  0  0  0  0
 13  2  1  0  0  0  0
 13 12  1  0  0  0  0
 14 19  1  0  0  0  0
 14  2  1  0  0  0  0
 15 14  2  0  0  0  0
 16 17  2  0  0  0  0
 16 15  1  0  0  0  0
 17 18  1  0  0  0  0
 18 30  1  0  0  0  0
 18 19  2  0  0  0  0
 19 20  1  0  0  0  0
 20 39  1  0  0  0  0
 20 40  1  0  0  0  0
 21 42  1  0  0  0  0
 22 43  1  0  0  0  0
 22  1  1  0  0  0  0
 22 21  1  0  0  0  0
 23  6  1  0  0  0  0
 24  7  1  0  0  0  0
 25  8  1  0  0  0  0
 27 15  1  0  0  0  0
 28 16  1  0  0  0  0
 29 17  1  0  0  0  0
 31  3  1  0  0  0  0
 34 12  1  0  0  0  0
 36 13  1  0  0  0  0
 38  4  1  0  0  0  0
 41 21  1  0  0  0  0
 44 22  1  0  0  0  0
M  END
