2,4
 OpenBabel05122313053D

 42 45  0  0  0  0  0  0  0  0999 V2000
   -1.8896    1.4622    0.2962 N   0  0  0  0  0  0  0  0  0  0  0  0
   -0.9663   -1.0005    1.1821 N   0  0  0  0  0  0  0  0  0  0  0  0
   -0.8347   -1.9814    0.9019 H   0  0  0  0  0  0  0  0  0  0  0  0
    0.9677    0.9683    1.2056 N   0  0  0  0  0  0  0  0  0  0  0  0
    0.8359    1.9559    0.9500 H   0  0  0  0  0  0  0  0  0  0  0  0
    1.8900   -1.4720    0.2590 N   0  0  0  0  0  0  0  0  0  0  0  0
   -2.3899   -0.7156    1.1795 C   0  0  0  0  0  0  0  0  0  0  0  0
   -3.3137   -1.6813    1.5556 C   0  0  0  0  0  0  0  0  0  0  0  0
   -2.9593   -2.6585    1.9190 H   0  0  0  0  0  0  0  0  0  0  0  0
   -4.7054   -1.4386    1.4324 C   0  0  0  0  0  0  0  0  0  0  0  0
   -5.4170   -2.2232    1.7276 H   0  0  0  0  0  0  0  0  0  0  0  0
   -5.1627   -0.2446    0.8970 C   0  0  0  0  0  0  0  0  0  0  0  0
   -6.2399   -0.0700    0.7537 H   0  0  0  0  0  0  0  0  0  0  0  0
   -4.2418    0.7590    0.4838 C   0  0  0  0  0  0  0  0  0  0  0  0
   -2.8326    0.5413    0.6611 C   0  0  0  0  0  0  0  0  0  0  0  0
   -4.6360    1.9744   -0.1476 C   0  0  0  0  0  0  0  0  0  0  0  0
   -5.7056    2.1735   -0.3142 H   0  0  0  0  0  0  0  0  0  0  0  0
   -3.6631    2.8675   -0.5697 C   0  0  0  0  0  0  0  0  0  0  0  0
   -3.9304    3.8024   -1.0834 H   0  0  0  0  0  0  0  0  0  0  0  0
   -2.2993    2.5711   -0.3142 C   0  0  0  0  0  0  0  0  0  0  0  0
   -1.5086    3.2758   -0.6264 H   0  0  0  0  0  0  0  0  0  0  0  0
    0.2355    0.6900    2.4744 C   0  0  0  0  0  0  0  0  0  0  0  0
   -0.6370    1.3707    2.4920 H   0  0  0  0  0  0  0  0  0  0  0  0
    0.8710    0.8976    3.3614 H   0  0  0  0  0  0  0  0  0  0  0  0
   -0.2330   -0.7537    2.4567 C   0  0  0  0  0  0  0  0  0  0  0  0
    0.6395   -1.4345    2.4565 H   0  0  0  0  0  0  0  0  0  0  0  0
   -0.8677   -0.9833    3.3389 H   0  0  0  0  0  0  0  0  0  0  0  0
    2.3913    0.6835    1.1949 C   0  0  0  0  0  0  0  0  0  0  0  0
    3.3154    1.6395    1.5939 C   0  0  0  0  0  0  0  0  0  0  0  0
    2.9614    2.6077    1.9813 H   0  0  0  0  0  0  0  0  0  0  0  0
    4.7070    1.3997    1.4638 C   0  0  0  0  0  0  0  0  0  0  0  0
    5.4189    2.1769    1.7776 H   0  0  0  0  0  0  0  0  0  0  0  0
    5.1637    0.2192    0.8989 C   0  0  0  0  0  0  0  0  0  0  0  0
    6.2408    0.0481    0.7505 H   0  0  0  0  0  0  0  0  0  0  0  0
    4.2424   -0.7738    0.4619 C   0  0  0  0  0  0  0  0  0  0  0  0
    2.8334   -0.5604    0.6456 C   0  0  0  0  0  0  0  0  0  0  0  0
    4.6360   -1.9734   -0.1995 C   0  0  0  0  0  0  0  0  0  0  0  0
    5.7054   -2.1685   -0.3718 H   0  0  0  0  0  0  0  0  0  0  0  0
    3.6626   -2.8559   -0.6425 C   0  0  0  0  0  0  0  0  0  0  0  0
    3.9295   -3.7780   -1.1790 H   0  0  0  0  0  0  0  0  0  0  0  0
    2.2991   -2.5657   -0.3786 C   0  0  0  0  0  0  0  0  0  0  0  0
    1.5080   -3.2626   -0.7072 H   0  0  0  0  0  0  0  0  0  0  0  0
  1 15  1  0  0  0  0
  2 25  1  0  0  0  0
  3  2  1  0  0  0  0
  4 22  1  0  0  0  0
  5  4  1  0  0  0  0
  6 36  1  0  0  0  0
  7  2  1  0  0  0  0
  7  8  1  0  0  0  0
  8  9  1  0  0  0  0
 10  8  2  0  0  0  0
 10 11  1  0  0  0  0
 12 10  1  0  0  0  0
 13 12  1  0  0  0  0
 14 15  1  0  0  0  0
 14 12  2  0  0  0  0
 15  7  2  0  0  0  0
 16 14  1  0  0  0  0
 17 16  1  0  0  0  0
 18 20  1  0  0  0  0
 18 16  2  0  0  0  0
 19 18  1  0  0  0  0
 20  1  2  0  0  0  0
 21 20  1  0  0  0  0
 22 23  1  0  0  0  0
 22 24  1  0  0  0  0
 25 22  1  0  0  0  0
 25 27  1  0  0  0  0
 26 25  1  0  0  0  0
 28  4  1  0  0  0  0
 28 29  1  0  0  0  0
 29 30  1  0  0  0  0
 31 29  2  0  0  0  0
 31 32  1  0  0  0  0
 33 31  1  0  0  0  0
 34 33  1  0  0  0  0
 35 36  1  0  0  0  0
 35 33  2  0  0  0  0
 36 28  2  0  0  0  0
 37 35  1  0  0  0  0
 38 37  1  0  0  0  0
 39 41  1  0  0  0  0
 39 37  2  0  0  0  0
 40 39  1  0  0  0  0
 41  6  2  0  0  0  0
 42 41  1  0  0  0  0
M  END
