1,18
 OpenBabel05122313053D

 31 31  0  0  1  0  0  0  0  0999 V2000
   -1.3522   -1.0421   -0.1981 N   0  0  0  0  0  2  0  0  0  0  0  0
   -2.0627    0.0811   -0.0599 C   0  0  2  0  0  3  0  0  0  0  0  0
   -3.5643    0.1078    0.2065 C   0  0  0  0  0  0  0  0  0  0  0  0
   -3.7997    1.0387    0.7492 H   0  0  0  0  0  0  0  0  0  0  0  0
   -4.0894    0.1969   -0.7698 H   0  0  0  0  0  0  0  0  0  0  0  0
   -4.1101   -1.0914    0.9944 C   0  0  0  0  0  0  0  0  0  0  0  0
   -5.0505   -0.7905    1.5009 H   0  0  0  0  0  0  0  0  0  0  0  0
   -3.3976   -1.3367    1.8106 H   0  0  0  0  0  0  0  0  0  0  0  0
   -4.3715   -2.3306    0.1295 C   0  0  0  0  0  0  0  0  0  0  0  0
   -5.3135   -2.1950   -0.4447 H   0  0  0  0  0  0  0  0  0  0  0  0
   -4.5424   -3.2038    0.7952 H   0  0  0  0  0  0  0  0  0  0  0  0
   -3.2191   -2.6328   -0.8393 C   0  0  0  0  0  0  0  0  0  0  0  0
   -3.2949   -3.6827   -1.1922 H   0  0  0  0  0  0  0  0  0  0  0  0
   -3.2941   -2.0023   -1.7513 H   0  0  0  0  0  0  0  0  0  0  0  0
   -1.8324   -2.4088   -0.2216 C   0  0  0  0  0  0  0  0  0  0  0  0
   -1.0850   -2.9902   -0.7974 H   0  0  0  0  0  0  0  0  0  0  0  0
   -1.8157   -2.8517    0.8051 H   0  0  0  0  0  0  0  0  0  0  0  0
   -1.2862    1.1832   -0.1857 N   0  0  0  0  0  2  0  0  0  0  0  0
   -1.7356    2.5855   -0.0797 C   0  0  0  0  0  0  0  0  0  0  0  0
   -0.5530    3.4834   -0.4875 C   0  0  0  0  0  0  0  0  0  0  0  0
    0.3469    3.2499    0.1112 H   0  0  0  0  0  0  0  0  0  0  0  0
   -0.8087    4.5492   -0.3243 H   0  0  0  0  0  0  0  0  0  0  0  0
   -0.2985    3.3442   -1.5540 H   0  0  0  0  0  0  0  0  0  0  0  0
   -2.8956    2.9180   -1.0488 C   0  0  0  0  0  0  0  0  0  0  0  0
   -3.0448    4.0157   -1.0985 H   0  0  0  0  0  0  0  0  0  0  0  0
   -3.8617    2.4721   -0.7509 H   0  0  0  0  0  0  0  0  0  0  0  0
   -2.6477    2.5617   -2.0689 H   0  0  0  0  0  0  0  0  0  0  0  0
   -2.1120    2.9523    1.3758 C   0  0  0  0  0  0  0  0  0  0  0  0
   -2.9480    2.3462    1.7750 H   0  0  0  0  0  0  0  0  0  0  0  0
   -2.4111    4.0182    1.4443 H   0  0  0  0  0  0  0  0  0  0  0  0
   -1.2413    2.7998    2.0439 H   0  0  0  0  0  0  0  0  0  0  0  0
  1  2  1  0  0  0  0
  2 18  1  6  0  0  0
  2  3  1  0  0  0  0
  3  4  1  0  0  0  0
  3  6  1  0  0  0  0
  5  3  1  0  0  0  0
  6  7  1  0  0  0  0
  6  8  1  0  0  0  0
  9 11  1  0  0  0  0
  9  6  1  0  0  0  0
 10  9  1  0  0  0  0
 12 15  1  0  0  0  0
 12  9  1  0  0  0  0
 13 12  1  0  0  0  0
 14 12  1  0  0  0  0
 15  1  1  0  0  0  0
 15 17  1  0  0  0  0
 16 15  1  0  0  0  0
 18 19  1  0  0  0  0
 19 28  1  0  0  0  0
 20 22  1  0  0  0  0
 20 19  1  0  0  0  0
 20 21  1  0  0  0  0
 23 20  1  0  0  0  0
 24 26  1  0  0  0  0
 24 19  1  0  0  0  0
 25 24  1  0  0  0  0
 27 24  1  0  0  0  0
 28 30  1  0  0  0  0
 28 29  1  0  0  0  0
 28 31  1  0  0  0  0
M  END
