2,3
 OpenBabel05122313053D

 36 36  0  0  0  0  0  0  0  0999 V2000
    2.3035   -1.0047    1.0431 Si  0  0  0  0  0  0  0  0  0  0  0  0
    0.6038    1.9644   -1.2754 N   0  0  0  0  0  2  0  0  0  0  0  0
    1.5892   -0.0939   -0.2963 N   0  0  0  0  0  2  0  0  0  0  0  0
   -0.0696    3.0935   -1.6603 C   0  0  0  0  0  3  0  0  0  0  0  0
   -0.9658    3.3326   -1.0695 H   0  0  0  0  0  0  0  0  0  0  0  0
    0.3356    3.8698   -2.7423 C   0  0  0  0  0  0  0  0  0  0  0  0
   -0.2498    4.7614   -3.0101 H   0  0  0  0  0  0  0  0  0  0  0  0
    1.4784    3.4995   -3.4787 C   0  0  0  0  0  0  0  0  0  0  0  0
    1.8126    4.0923   -4.3421 H   0  0  0  0  0  0  0  0  0  0  0  0
    2.1792    2.3493   -3.0780 C   0  0  0  0  0  0  0  0  0  0  0  0
    3.0803    2.0183   -3.6165 H   0  0  0  0  0  0  0  0  0  0  0  0
    1.7374    1.6113   -1.9779 C   0  0  0  0  0  0  0  0  0  0  0  0
    2.3885    0.3810   -1.4132 C   0  0  0  0  0  0  0  0  0  0  0  0
    2.4592   -0.3956   -2.2153 H   0  0  0  0  0  0  0  0  0  0  0  0
    3.4493    0.6193   -1.1441 H   0  0  0  0  0  0  0  0  0  0  0  0
    3.6242    0.0726    1.8792 C   0  0  0  0  0  0  0  0  0  0  0  0
    3.1392    0.9653    2.3254 H   0  0  0  0  0  0  0  0  0  0  0  0
    4.3924    0.4284    1.1626 H   0  0  0  0  0  0  0  0  0  0  0  0
    4.1493   -0.4725    2.6906 H   0  0  0  0  0  0  0  0  0  0  0  0
    0.9444   -1.3803    2.2992 C   0  0  0  0  0  0  0  0  0  0  0  0
    0.5250   -0.4395    2.7082 H   0  0  0  0  0  0  0  0  0  0  0  0
    1.3497   -1.9723    3.1453 H   0  0  0  0  0  0  0  0  0  0  0  0
    0.1124   -1.9407    1.8315 H   0  0  0  0  0  0  0  0  0  0  0  0
    3.1062   -2.6593    0.4280 C   0  0  0  0  0  0  0  0  0  0  0  0
    2.1153   -3.3826   -0.5001 C   0  0  0  0  0  0  0  0  0  0  0  0
    2.5293   -4.3602   -0.8361 H   0  0  0  0  0  0  0  0  0  0  0  0
    1.8927   -2.7835   -1.4064 H   0  0  0  0  0  0  0  0  0  0  0  0
    1.1489   -3.5884    0.0054 H   0  0  0  0  0  0  0  0  0  0  0  0
    3.4222   -3.5528    1.6424 C   0  0  0  0  0  0  0  0  0  0  0  0
    3.9286   -4.4890    1.3148 H   0  0  0  0  0  0  0  0  0  0  0  0
    2.5048   -3.8499    2.1899 H   0  0  0  0  0  0  0  0  0  0  0  0
    4.0995   -3.0513    2.3656 H   0  0  0  0  0  0  0  0  0  0  0  0
    4.4135   -2.3762   -0.3357 C   0  0  0  0  0  0  0  0  0  0  0  0
    4.8727   -3.3288   -0.6851 H   0  0  0  0  0  0  0  0  0  0  0  0
    5.1644   -1.8644    0.3009 H   0  0  0  0  0  0  0  0  0  0  0  0
    4.2493   -1.7473   -1.2342 H   0  0  0  0  0  0  0  0  0  0  0  0
  1 16  1  0  0  0  0
  1 20  1  0  0  0  0
  3  1  1  0  0  0  0
  4  2  1  0  0  0  0
  4  5  1  0  0  0  0
  6  4  1  0  0  0  0
  7  6  1  0  0  0  0
  8 10  1  0  0  0  0
  8  6  2  0  0  0  0
  9  8  1  0  0  0  0
 10 12  2  0  0  0  0
 11 10  1  0  0  0  0
 12 13  1  0  0  0  0
 12  2  1  0  0  0  0
 13 15  1  0  0  0  0
 13  3  1  0  0  0  0
 14 13  1  0  0  0  0
 16 17  1  0  0  0  0
 16 19  1  0  0  0  0
 18 16  1  0  0  0  0
 20 21  1  0  0  0  0
 20 22  1  0  0  0  0
 23 20  1  0  0  0  0
 24  1  1  0  0  0  0
 24 29  1  0  0  0  0
 25 28  1  0  0  0  0
 25 24  1  0  0  0  0
 26 25  1  0  0  0  0
 27 25  1  0  0  0  0
 29 31  1  0  0  0  0
 29 32  1  0  0  0  0
 30 29  1  0  0  0  0
 33 35  1  0  0  0  0
 33 24  1  0  0  0  0
 34 33  1  0  0  0  0
 36 33  1  0  0  0  0
M  END
