2,8
 OpenBabel05122313053D

 34 35  0  0  0  0  0  0  0  0999 V2000
   -3.7971   -1.1029   -0.2243 C   0  0  0  0  0  0  0  0  0  0  0  0
   -1.4655   -1.9261   -0.4101 N   0  0  0  0  0  2  0  0  0  0  0  0
   -6.8559    1.5925    0.4752 F   0  0  0  0  0  0  0  0  0  0  0  0
   -4.5858    2.7864   -0.9619 Cl  0  0  0  0  0  0  0  0  0  0  0  0
    6.4643    1.3982    1.5885 F   0  0  0  0  0  0  0  0  0  0  0  0
   -3.6746    0.2318   -0.6718 C   0  0  0  0  0  0  0  0  0  0  0  0
   -2.7750    0.5541   -1.2256 H   0  0  0  0  0  0  0  0  0  0  0  0
    1.2681   -1.5584   -0.9322 N   0  0  0  0  0  2  0  0  0  0  0  0
    6.8434    1.3860   -1.3283 Cl  0  0  0  0  0  0  0  0  0  0  0  0
   -4.7096    1.1415   -0.4369 C   0  0  0  0  0  0  0  0  0  0  0  0
   -5.8720    0.7210    0.2435 C   0  0  0  0  0  0  0  0  0  0  0  0
   -6.0158   -0.6081    0.6616 C   0  0  0  0  0  0  0  0  0  0  0  0
   -6.9420   -0.9003    1.1764 H   0  0  0  0  0  0  0  0  0  0  0  0
   -4.9897   -1.5229    0.4115 C   0  0  0  0  0  0  0  0  0  0  0  0
   -5.1024   -2.5689    0.7344 H   0  0  0  0  0  0  0  0  0  0  0  0
   -2.7512   -2.0969   -0.4650 C   0  0  0  0  0  3  0  0  0  0  0  0
   -3.1200   -3.1159   -0.7150 H   0  0  0  0  0  0  0  0  0  0  0  0
   -0.6320   -3.0540   -0.8486 C   0  0  0  0  0  0  0  0  0  0  0  0
   -1.2299   -3.8107   -1.3995 H   0  0  0  0  0  0  0  0  0  0  0  0
   -0.1803   -3.5390    0.0441 H   0  0  0  0  0  0  0  0  0  0  0  0
    0.4713   -2.4900   -1.7386 C   0  0  0  0  0  0  0  0  0  0  0  0
    1.0965   -3.3020   -2.1659 H   0  0  0  0  0  0  0  0  0  0  0  0
    0.0063   -1.8994   -2.5585 H   0  0  0  0  0  0  0  0  0  0  0  0
    2.5460   -1.5366   -1.1429 C   0  0  0  0  0  3  0  0  0  0  0  0
    2.9441   -2.1615   -1.9719 H   0  0  0  0  0  0  0  0  0  0  0  0
    3.5448   -0.7629   -0.3983 C   0  0  0  0  0  0  0  0  0  0  0  0
    4.5926   -0.1516   -1.1223 C   0  0  0  0  0  0  0  0  0  0  0  0
    4.6378   -0.2260   -2.2184 H   0  0  0  0  0  0  0  0  0  0  0  0
    5.5718    0.5943   -0.4573 C   0  0  0  0  0  0  0  0  0  0  0  0
    5.5270    0.6965    0.9494 C   0  0  0  0  0  0  0  0  0  0  0  0
    4.5210    0.0529    1.6790 C   0  0  0  0  0  0  0  0  0  0  0  0
    4.5300    0.1368    2.7749 H   0  0  0  0  0  0  0  0  0  0  0  0
    3.5314   -0.6730    1.0115 C   0  0  0  0  0  0  0  0  0  0  0  0
    2.7499   -1.1837    1.5871 H   0  0  0  0  0  0  0  0  0  0  0  0
  1 14  1  0  0  0  0
  4 10  1  0  0  0  0
  6 10  1  0  0  0  0
  6  1  2  0  0  0  0
  7  6  1  0  0  0  0
  9 29  1  0  0  0  0
 10 11  2  0  0  0  0
 11  3  1  0  0  0  0
 11 12  1  0  0  0  0
 12 13  1  0  0  0  0
 14 12  2  0  0  0  0
 14 15  1  0  0  0  0
 16  2  1  0  0  0  0
 16  1  1  0  0  0  0
 17 16  1  0  0  0  0
 18  2  1  0  0  0  0
 18 20  1  0  0  0  0
 19 18  1  0  0  0  0
 21  8  1  0  0  0  0
 21 18  1  0  0  0  0
 22 21  1  0  0  0  0
 23 21  1  0  0  0  0
 24  8  1  0  0  0  0
 24 26  1  0  0  0  0
 25 24  1  0  0  0  0
 26 33  1  0  0  0  0
 27 29  1  0  0  0  0
 27 26  2  0  0  0  0
 28 27  1  0  0  0  0
 29 30  2  0  0  0  0
 30  5  1  0  0  0  0
 30 31  1  0  0  0  0
 31 32  1  0  0  0  0
 33 34  1  0  0  0  0
 33 31  2  0  0  0  0
M  END
