1,3
 OpenBabel05122313053D

 23 24  0  0  1  0  0  0  0  0999 V2000
    1.2047    1.4156    0.0002 N   0  0  0  0  0  0  0  0  0  0  0  0
    0.7170    2.3257    0.0004 H   0  0  0  0  0  0  0  0  0  0  0  0
    1.2047   -1.4157   -0.0003 N   0  0  0  0  0  0  0  0  0  0  0  0
    0.7170   -2.3257   -0.0005 H   0  0  0  0  0  0  0  0  0  0  0  0
    2.0253    1.2968    1.2386 C   0  0  0  0  0  0  0  0  0  0  0  0
    1.3310    1.3351    2.0997 H   0  0  0  0  0  0  0  0  0  0  0  0
    2.7249    2.1616    1.3101 H   0  0  0  0  0  0  0  0  0  0  0  0
    2.8557   -0.0002    1.2354 C   0  0  1  0  0  0  0  0  0  0  0  0
    3.4612   -0.0004    2.1652 H   0  0  0  0  0  0  0  0  0  0  0  0
    2.0253   -1.2973    1.2381 C   0  0  0  0  0  0  0  0  0  0  0  0
    2.7249   -2.1621    1.3093 H   0  0  0  0  0  0  0  0  0  0  0  0
    1.3310   -1.3359    2.0991 H   0  0  0  0  0  0  0  0  0  0  0  0
    2.0255   -1.2968   -1.2386 C   0  0  0  0  0  0  0  0  0  0  0  0
    1.3313   -1.3351   -2.0997 H   0  0  0  0  0  0  0  0  0  0  0  0
    2.7251   -2.1616   -1.3100 H   0  0  0  0  0  0  0  0  0  0  0  0
    2.8559    0.0002   -1.2353 C   0  0  1  0  0  0  0  0  0  0  0  0
    3.4615    0.0004   -2.1651 H   0  0  0  0  0  0  0  0  0  0  0  0
    2.0255    1.2973   -1.2380 C   0  0  0  0  0  0  0  0  0  0  0  0
    2.7251    2.1621   -1.3092 H   0  0  0  0  0  0  0  0  0  0  0  0
    1.3313    1.3359   -2.0992 H   0  0  0  0  0  0  0  0  0  0  0  0
    3.7722   -0.0000    0.0001 C   0  0  0  0  0  0  0  0  0  0  0  0
    4.4310   -0.8932   -0.0000 H   0  0  0  0  0  0  0  0  0  0  0  0
    4.4310    0.8932    0.0003 H   0  0  0  0  0  0  0  0  0  0  0  0
  1  2  1  0  0  0  0
  1  5  1  0  0  0  0
  3 10  1  0  0  0  0
  4  3  1  0  0  0  0
  5  7  1  0  0  0  0
  5  6  1  0  0  0  0
  8 10  1  0  0  0  0
  8  5  1  0  0  0  0
  8  9  1  1  0  0  0
 10 11  1  0  0  0  0
 10 12  1  0  0  0  0
 13 16  1  0  0  0  0
 13  3  1  0  0  0  0
 14 13  1  0  0  0  0
 15 13  1  0  0  0  0
 16 17  1  6  0  0  0
 16 21  1  0  0  0  0
 18 16  1  0  0  0  0
 18  1  1  0  0  0  0
 19 18  1  0  0  0  0
 20 18  1  0  0  0  0
 21 23  1  0  0  0  0
 21  8  1  0  0  0  0
 22 21  1  0  0  0  0
M  END
