4,5
 OpenBabel05122313053D

 49 52  0  0  1  0  0  0  0  0999 V2000
   -0.7592    0.1633   -3.2871 O   0  0  0  0  0  0  0  0  0  0  0  0
   -2.5115    2.1263   -1.1038 O   0  0  0  0  0  0  0  0  0  0  0  0
   -2.6072   -1.8756    1.2140 O   0  0  0  0  0  0  0  0  0  0  0  0
    2.1847    1.2604    0.3234 N   0  0  0  0  0  2  0  0  0  0  0  0
    0.1595    0.5192   -1.2035 N   0  0  0  0  0  2  0  0  0  0  0  0
   -2.4870   -0.0531   -0.2501 N   0  0  0  0  0  0  0  0  0  0  0  0
    3.0982    1.6045    1.2383 C   0  0  0  0  0  0  0  0  0  0  0  0
    3.2891    0.8793    2.0390 H   0  0  0  0  0  0  0  0  0  0  0  0
    3.7694    2.8463    1.1859 C   0  0  0  0  0  0  0  0  0  0  0  0
    4.5154    3.0824    1.9577 H   0  0  0  0  0  0  0  0  0  0  0  0
    3.4704    3.7401    0.1684 C   0  0  0  0  0  0  0  0  0  0  0  0
    3.9835    4.7118    0.1011 H   0  0  0  0  0  0  0  0  0  0  0  0
    2.4713    3.4174   -0.7926 C   0  0  0  0  0  0  0  0  0  0  0  0
    2.0622    4.2804   -1.8400 C   0  0  0  0  0  3  0  0  0  0  0  0
    2.5467    5.2607   -1.9555 H   0  0  0  0  0  0  0  0  0  0  0  0
    1.0389    3.8675   -2.6915 C   0  0  0  0  0  0  0  0  0  0  0  0
    0.7087    4.5356   -3.5020 H   0  0  0  0  0  0  0  0  0  0  0  0
    0.3943    2.6211   -2.5572 C   0  0  0  0  0  0  0  0  0  0  0  0
   -0.4077    2.3456   -3.2482 H   0  0  0  0  0  0  0  0  0  0  0  0
    0.7647    1.7218   -1.5337 C   0  0  0  0  0  0  0  0  0  0  0  0
    1.8278    2.1359   -0.6658 C   0  0  0  0  0  0  0  0  0  0  0  0
   -0.8080    0.0063   -2.0659 C   0  0  0  0  0  0  0  0  0  0  0  0
   -1.9768   -0.7720   -1.4090 C   0  0  2  0  0  0  0  0  0  0  0  0
   -1.5472   -1.6927   -0.9743 H   0  0  0  0  0  0  0  0  0  0  0  0
   -3.1155   -1.2292   -2.3929 C   0  0  0  0  0  0  0  0  0  0  0  0
   -2.5320   -2.2246   -3.4167 C   0  0  0  0  0  0  0  0  0  0  0  0
   -2.1057   -3.1170   -2.9127 H   0  0  0  0  0  0  0  0  0  0  0  0
   -1.7488   -1.7510   -4.0354 H   0  0  0  0  0  0  0  0  0  0  0  0
   -3.3387   -2.5854   -4.0869 H   0  0  0  0  0  0  0  0  0  0  0  0
   -3.7697   -0.0463   -3.1305 C   0  0  0  0  0  0  0  0  0  0  0  0
   -3.0300    0.5035   -3.7389 H   0  0  0  0  0  0  0  0  0  0  0  0
   -4.2361    0.6675   -2.4244 H   0  0  0  0  0  0  0  0  0  0  0  0
   -4.5691   -0.4267   -3.7998 H   0  0  0  0  0  0  0  0  0  0  0  0
   -4.2035   -1.9630   -1.5831 C   0  0  0  0  0  0  0  0  0  0  0  0
   -4.9700   -2.3665   -2.2753 H   0  0  0  0  0  0  0  0  0  0  0  0
   -4.7217   -1.2816   -0.8791 H   0  0  0  0  0  0  0  0  0  0  0  0
   -3.7887   -2.8045   -0.9939 H   0  0  0  0  0  0  0  0  0  0  0  0
   -2.7192    1.3381   -0.1958 C   0  0  0  0  0  0  0  0  0  0  0  0
   -3.2619    1.6012    1.1708 C   0  0  0  0  0  0  0  0  0  0  0  0
   -3.6784    2.7945    1.7589 C   0  0  0  0  0  0  0  0  0  0  0  0
   -3.6413    3.7389    1.1963 H   0  0  0  0  0  0  0  0  0  0  0  0
   -4.1369    2.7372    3.0900 C   0  0  0  0  0  0  0  0  0  0  0  0
   -4.4743    3.6580    3.5896 H   0  0  0  0  0  0  0  0  0  0  0  0
   -4.1677    1.5184    3.7951 C   0  0  0  0  0  0  0  0  0  0  0  0
   -4.5293    1.5066    4.8346 H   0  0  0  0  0  0  0  0  0  0  0  0
   -3.7390    0.3190    3.1934 C   0  0  0  0  0  0  0  0  0  0  0  0
   -3.7461   -0.6378    3.7354 H   0  0  0  0  0  0  0  0  0  0  0  0
   -3.2889    0.3869    1.8760 C   0  0  0  0  0  0  0  0  0  0  0  0
   -2.7582   -0.6828    0.9801 C   0  0  0  0  0  0  0  0  0  0  0  0
  1 22  2  0  0  0  0
  2 38  2  0  0  0  0
  4  7  1  0  0  0  0
  6 38  1  0  0  0  0
  6 49  1  0  0  0  0
  7  8  1  0  0  0  0
  9  7  2  0  0  0  0
  9 10  1  0  0  0  0
 11  9  1  0  0  0  0
 12 11  1  0  0  0  0
 13 21  1  0  0  0  0
 13 11  2  0  0  0  0
 14 13  1  0  0  0  0
 15 14  1  0  0  0  0
 16 18  2  0  0  0  0
 16 14  1  0  0  0  0
 17 16  1  0  0  0  0
 18 20  1  0  0  0  0
 19 18  1  0  0  0  0
 20  5  1  0  0  0  0
 20 21  2  0  0  0  0
 21  4  1  0  0  0  0
 22 23  1  0  0  0  0
 22  5  1  0  0  0  0
 23 24  1  1  0  0  0
 23  6  1  0  0  0  0
 25 34  1  0  0  0  0
 25 23  1  0  0  0  0
 26 27  1  0  0  0  0
 26 25  1  0  0  0  0
 28 26  1  0  0  0  0
 29 26  1  0  0  0  0
 30 32  1  0  0  0  0
 30 25  1  0  0  0  0
 31 30  1  0  0  0  0
 33 30  1  0  0  0  0
 34 37  1  0  0  0  0
 34 36  1  0  0  0  0
 35 34  1  0  0  0  0
 38 39  1  0  0  0  0
 39 40  2  0  0  0  0
 39 48  1  0  0  0  0
 40 42  1  0  0  0  0
 41 40  1  0  0  0  0
 42 43  1  0  0  0  0
 42 44  2  0  0  0  0
 44 45  1  0  0  0  0
 46 47  1  0  0  0  0
 46 44  1  0  0  0  0
 48 46  2  0  0  0  0
 49  3  2  0  0  0  0
 49 48  1  0  0  0  0
M  END
