2,3
 OpenBabel05122313053D

 19 19  0  0  1  0  0  0  0  0999 V2000
   -0.9770   -2.7615    1.4261 O   0  5  0  0  0  0  0  0  0  0  0  0
   -0.0455   -2.2664    0.7515 N   0  3  0  0  0  2  0  0  0  0  0  0
    1.8739   -0.2631    0.1141 N   0  0  0  0  0  2  0  0  0  0  0  0
    1.0708   -3.1049    0.5673 C   0  0  0  0  0  0  0  0  0  0  0  0
    2.2964   -2.6740    0.1463 C   0  0  0  0  0  0  0  0  0  0  0  0
    2.7585   -1.3106    0.0076 C   0  0  2  0  0  3  0  0  0  0  0  0
    4.1459   -1.0557   -0.1098 C   0  0  0  0  0  0  0  0  0  0  0  0
    4.6371    0.2440   -0.0518 C   0  0  0  0  0  0  0  0  0  0  0  0
    3.7339    1.3124    0.1592 C   0  0  0  0  0  0  0  0  0  0  0  0
    2.3742    0.9955    0.2387 C   0  0  0  0  0  0  0  0  0  0  0  0
    4.2008    2.7367    0.2813 C   0  0  0  0  0  0  0  0  0  0  0  0
    0.8828   -4.1577    0.8299 H   0  0  0  0  0  0  0  0  0  0  0  0
    3.0751   -3.4440    0.0401 H   0  0  0  0  0  0  0  0  0  0  0  0
    4.8264   -1.9113   -0.2284 H   0  0  0  0  0  0  0  0  0  0  0  0
    5.7162    0.4390   -0.1471 H   0  0  0  0  0  0  0  0  0  0  0  0
    1.6235    1.7855    0.3791 H   0  0  0  0  0  0  0  0  0  0  0  0
    3.3497    3.4378    0.3746 H   0  0  0  0  0  0  0  0  0  0  0  0
    4.7980    3.0379   -0.6041 H   0  0  0  0  0  0  0  0  0  0  0  0
    4.8536    2.8690    1.1696 H   0  0  0  0  0  0  0  0  0  0  0  0
  2  1  1  0  0  0  0
  3 10  1  0  0  0  0
  4  2  1  0  0  0  0
  4 12  1  0  0  0  0
  5  4  2  0  0  0  0
  6  3  1  0  0  0  0
  6  5  1  1  0  0  0
  7  8  2  0  0  0  0
  7  6  1  0  0  0  0
  8  9  1  0  0  0  0
  9 10  2  0  0  0  0
  9 11  1  0  0  0  0
 10 16  1  0  0  0  0
 11 17  1  0  0  0  0
 11 19  1  0  0  0  0
 13  5  1  0  0  0  0
 14  7  1  0  0  0  0
 15  8  1  0  0  0  0
 18 11  1  0  0  0  0
M  CHG  2   1  -1   2   1
M  END
