1,2
 OpenBabel05122313053D

 29 30  0  0  0  0  0  0  0  0999 V2000
   -0.3203    1.2204   -0.2761 N   0  0  0  0  0  2  0  0  0  0  0  0
    2.2921    1.2447   -0.2266 N   0  0  0  0  0  2  0  0  0  0  0  0
   -1.6338    1.0164   -0.4740 N   0  0  0  0  0  0  0  0  0  0  0  0
    1.6737    2.4509   -0.4146 C   0  0  0  0  0  0  0  0  0  0  0  0
    3.6302    1.2007   -0.0942 C   0  0  0  0  0  0  0  0  0  0  0  0
    4.0696    0.2138    0.1074 H   0  0  0  0  0  0  0  0  0  0  0  0
   -2.5091    1.0649    0.4892 C   0  0  0  0  0  0  0  0  0  0  0  0
    0.2305    2.3915   -0.4836 C   0  0  0  0  0  0  0  0  0  0  0  0
   -0.3833    3.2775   -0.7144 H   0  0  0  0  0  0  0  0  0  0  0  0
    2.4143    3.6441   -0.5129 C   0  0  0  0  0  0  0  0  0  0  0  0
    1.8876    4.5975   -0.6614 H   0  0  0  0  0  0  0  0  0  0  0  0
    3.8072    3.5911   -0.4050 C   0  0  0  0  0  0  0  0  0  0  0  0
    4.4069    4.5099   -0.4786 H   0  0  0  0  0  0  0  0  0  0  0  0
   -2.1717    1.3972    1.9120 C   0  0  0  0  0  0  0  0  0  0  0  0
   -2.7092    2.3148    2.2287 H   0  0  0  0  0  0  0  0  0  0  0  0
   -2.5176    0.5839    2.5813 H   0  0  0  0  0  0  0  0  0  0  0  0
   -1.0846    1.5199    2.0698 H   0  0  0  0  0  0  0  0  0  0  0  0
    4.4254    2.3490   -0.1879 C   0  0  0  0  0  0  0  0  0  0  0  0
    5.5157    2.2620   -0.0837 H   0  0  0  0  0  0  0  0  0  0  0  0
   -3.9125    0.7606    0.1074 C   0  0  0  0  0  0  0  0  0  0  0  0
   -4.9376    0.6836    1.0724 C   0  0  0  0  0  0  0  0  0  0  0  0
   -4.7408    0.8560    2.1396 H   0  0  0  0  0  0  0  0  0  0  0  0
   -6.2426    0.3735    0.6523 C   0  0  0  0  0  0  0  0  0  0  0  0
   -7.0565    0.3062    1.3954 H   0  0  0  0  0  0  0  0  0  0  0  0
   -4.2706    0.5311   -1.2401 C   0  0  0  0  0  0  0  0  0  0  0  0
   -3.5118    0.6019   -2.0326 H   0  0  0  0  0  0  0  0  0  0  0  0
   -6.5783    0.1462   -0.6247 N   0  0  0  0  0  0  0  0  0  0  0  0
   -5.6031    0.2294   -1.5464 C   0  0  0  0  0  0  0  0  0  0  0  0
   -5.9020    0.0481   -2.5939 H   0  0  0  0  0  0  0  0  0  0  0  0
  2  5  1  0  0  0  0
  3  1  1  0  0  0  0
  3  7  2  0  0  0  0
  4  2  1  0  0  0  0
  5  6  1  0  0  0  0
  7 14  1  0  0  0  0
  8  4  2  0  0  0  0
  8  1  1  0  0  0  0
  9  8  1  0  0  0  0
 10  4  1  0  0  0  0
 10 12  2  0  0  0  0
 11 10  1  0  0  0  0
 12 18  1  0  0  0  0
 13 12  1  0  0  0  0
 14 17  1  0  0  0  0
 14 15  1  0  0  0  0
 14 16  1  0  0  0  0
 18  5  2  0  0  0  0
 18 19  1  0  0  0  0
 20  7  1  0  0  0  0
 20 21  1  0  0  0  0
 21 22  1  0  0  0  0
 23 21  2  0  0  0  0
 23 24  1  0  0  0  0
 25 20  2  0  0  0  0
 26 25  1  0  0  0  0
 27 23  1  0  0  0  0
 28 25  1  0  0  0  0
 28 27  2  0  0  0  0
 29 28  1  0  0  0  0
M  END
