4,5
 OpenBabel05122313053D

 22 22  0  0  0  0  0  0  0  0999 V2000
   -1.2019    2.5475   -0.1816 O   0  0  0  0  0  1  0  0  0  0  0  0
   -1.2173   -2.5679   -0.1831 O   0  0  0  0  0  0  0  0  0  0  0  0
   -0.1330   -2.6781   -0.0192 H   0  0  0  0  0  0  0  0  0  0  0  0
   -1.3932    1.2667   -0.2119 N   0  0  0  0  0  2  0  0  0  0  0  0
   -1.3875   -1.2499   -0.2112 N   0  0  0  0  0  2  0  0  0  0  0  0
   -2.5952    0.7306   -0.3980 C   0  0  0  0  0  0  0  0  0  0  0  0
   -2.5864   -0.7281   -0.3961 C   0  0  0  0  0  0  0  0  0  0  0  0
   -3.8206   -1.5626   -0.5584 C   0  0  0  0  0  0  0  0  0  0  0  0
   -4.2520   -1.3818   -1.5691 H   0  0  0  0  0  0  0  0  0  0  0  0
   -3.5024   -2.6212   -0.5287 H   0  0  0  0  0  0  0  0  0  0  0  0
   -4.9065   -1.3012    0.5063 C   0  0  0  0  0  0  0  0  0  0  0  0
   -4.4394   -1.3318    1.5149 H   0  0  0  0  0  0  0  0  0  0  0  0
   -5.6190   -2.1521    0.4736 H   0  0  0  0  0  0  0  0  0  0  0  0
   -5.7011   -0.0002    0.3352 C   0  0  0  0  0  0  0  0  0  0  0  0
   -6.5369   -0.0037    1.0672 H   0  0  0  0  0  0  0  0  0  0  0  0
   -6.1817   -0.0048   -0.6700 H   0  0  0  0  0  0  0  0  0  0  0  0
   -4.9177    1.3080    0.5010 C   0  0  0  0  0  0  0  0  0  0  0  0
   -5.6375    2.1526    0.4604 H   0  0  0  0  0  0  0  0  0  0  0  0
   -4.4550    1.3474    1.5114 H   0  0  0  0  0  0  0  0  0  0  0  0
   -3.8287    1.5654   -0.5598 C   0  0  0  0  0  0  0  0  0  0  0  0
   -3.4960    2.6203   -0.5202 H   0  0  0  0  0  0  0  0  0  0  0  0
   -4.2622    1.4013   -1.5729 H   0  0  0  0  0  0  0  0  0  0  0  0
  2  3  1  0  0  0  0
  4  1  1  0  0  0  0
  5  2  1  0  0  0  0
  6  7  2  0  0  0  0
  6  4  1  0  0  0  0
  7  5  1  0  0  0  0
  8 10  1  0  0  0  0
  8  7  1  0  0  0  0
  8 11  1  0  0  0  0
  9  8  1  0  0  0  0
 11 12  1  0  0  0  0
 13 11  1  0  0  0  0
 14 17  1  0  0  0  0
 14 11  1  0  0  0  0
 14 15  1  0  0  0  0
 16 14  1  0  0  0  0
 17 19  1  0  0  0  0
 18 17  1  0  0  0  0
 20 21  1  0  0  0  0
 20  6  1  0  0  0  0
 20 17  1  0  0  0  0
 22 20  1  0  0  0  0
M  END
