2,3
 OpenBabel05122313053D

 34 36  0  0  1  0  0  0  0  0999 V2000
    2.1914    1.8718   -0.0167 N   0  0  0  0  0  0  0  0  0  0  0  0
   -1.3333    0.8168    0.2722 N   0  0  0  0  0  2  0  0  0  0  0  0
    1.1171   -0.0926   -0.1814 N   0  0  0  0  0  2  0  0  0  0  0  0
    0.9672    1.2242   -0.0522 C   0  0  0  0  0  0  0  0  0  0  0  0
    3.1691    0.8830   -0.1301 C   0  0  0  0  0  0  0  0  0  0  0  0
    2.4651   -0.3530   -0.2133 C   0  0  0  0  0  0  0  0  0  0  0  0
   -0.3887    1.7776    0.0716 C   0  0  0  0  0  0  0  0  0  0  0  0
    4.5731    0.9352   -0.1487 C   0  0  0  0  0  0  0  0  0  0  0  0
    5.1304    1.8817   -0.0987 H   0  0  0  0  0  0  0  0  0  0  0  0
   -3.0581   -1.2504    0.7135 O   0  0  0  0  0  0  0  0  0  0  0  0
   -2.9297   -1.6387   -0.1990 H   0  0  0  0  0  0  0  0  0  0  0  0
   -2.6261    1.1407    0.3821 C   0  0  0  0  0  0  0  0  0  0  0  0
    5.2416   -0.2922   -0.2357 C   0  0  0  0  0  0  0  0  0  0  0  0
    6.3417   -0.2981   -0.2526 H   0  0  0  0  0  0  0  0  0  0  0  0
    3.1497   -1.5820   -0.2805 C   0  0  0  0  0  0  0  0  0  0  0  0
    2.5778   -2.5206   -0.2747 H   0  0  0  0  0  0  0  0  0  0  0  0
   -3.0405    2.4912    0.3484 C   0  0  0  0  0  0  0  0  0  0  0  0
   -4.1027    2.7436    0.4792 H   0  0  0  0  0  0  0  0  0  0  0  0
    4.5445   -1.5279   -0.2921 C   0  0  0  0  0  0  0  0  0  0  0  0
    5.1221   -2.4630   -0.3371 H   0  0  0  0  0  0  0  0  0  0  0  0
   -0.7393    3.1357   -0.0228 C   0  0  0  0  0  0  0  0  0  0  0  0
    0.0097    3.9071   -0.2327 H   0  0  0  0  0  0  0  0  0  0  0  0
   -2.0885    3.4885    0.1349 C   0  0  0  0  0  0  0  0  0  0  0  0
   -2.3898    4.5453    0.0796 H   0  0  0  0  0  0  0  0  0  0  0  0
    2.4670    3.2814    0.1886 C   0  0  0  0  0  0  0  0  0  0  0  0
    1.8477    3.6838    1.0126 H   0  0  0  0  0  0  0  0  0  0  0  0
    2.2872    3.8755   -0.7311 H   0  0  0  0  0  0  0  0  0  0  0  0
    3.5281    3.3962    0.4745 H   0  0  0  0  0  0  0  0  0  0  0  0
   -3.6518    0.0134    0.5496 C   0  0  1  0  0  0  0  0  0  0  0  0
   -4.1912    0.2396    1.4996 H   0  0  0  0  0  0  0  0  0  0  0  0
   -4.6598    0.0211   -0.6108 C   0  0  0  0  0  0  0  0  0  0  0  0
   -5.4210   -0.7635   -0.4352 H   0  0  0  0  0  0  0  0  0  0  0  0
   -4.1256   -0.2063   -1.5556 H   0  0  0  0  0  0  0  0  0  0  0  0
   -5.1781    0.9943   -0.7148 H   0  0  0  0  0  0  0  0  0  0  0  0
  1 25  1  0  0  0  0
  2 12  1  0  0  0  0
  3  4  1  0  0  0  0
  4  1  1  0  0  0  0
  4  7  2  0  0  0  0
  5  1  1  0  0  0  0
  6  3  1  0  0  0  0
  6  5  2  0  0  0  0
  7  2  1  0  0  0  0
  8  5  1  0  0  0  0
  8  9  1  0  0  0  0
 11 10  1  0  0  0  0
 12 29  1  0  0  0  0
 13  8  2  0  0  0  0
 14 13  1  0  0  0  0
 15 16  1  0  0  0  0
 15  6  1  0  0  0  0
 17 12  2  0  0  0  0
 17 18  1  0  0  0  0
 19 15  2  0  0  0  0
 19 13  1  0  0  0  0
 20 19  1  0  0  0  0
 21  7  1  0  0  0  0
 21 23  2  0  0  0  0
 22 21  1  0  0  0  0
 23 17  1  0  0  0  0
 24 23  1  0  0  0  0
 25 28  1  0  0  0  0
 25 26  1  0  0  0  0
 27 25  1  0  0  0  0
 29 10  1  0  0  0  0
 29 30  1  1  0  0  0
 31 32  1  0  0  0  0
 31 29  1  0  0  0  0
 33 31  1  0  0  0  0
 34 31  1  0  0  0  0
M  END
