1,33
 OpenBabel05122313053D

 33 32  0  0  0  0  0  0  0  0999 V2000
    1.2398   -0.9477    0.0867 N   0  0  0  0  0  2  0  0  0  0  0  0
    2.7983   -1.7032   -0.3412 Si  0  0  0  0  0  0  0  0  0  0  0  0
    0.0006   -1.9952    0.4032 S   0  0  0  0  0  3  0  0  0  0  0  0
   -2.7971   -1.7052   -0.3414 Si  0  0  0  0  0  0  0  0  0  0  0  0
    3.0841   -3.1988    0.7978 C   0  0  0  0  0  0  0  0  0  0  0  0
    2.2731   -3.9521    0.7111 H   0  0  0  0  0  0  0  0  0  0  0  0
    3.1701   -2.8986    1.8625 H   0  0  0  0  0  0  0  0  0  0  0  0
    4.0305   -3.7060    0.5160 H   0  0  0  0  0  0  0  0  0  0  0  0
    2.8167   -2.3408   -2.1201 C   0  0  0  0  0  0  0  0  0  0  0  0
    1.9587   -3.0226   -2.2947 H   0  0  0  0  0  0  0  0  0  0  0  0
    3.7485   -2.9068   -2.3281 H   0  0  0  0  0  0  0  0  0  0  0  0
    2.7443   -1.5089   -2.8474 H   0  0  0  0  0  0  0  0  0  0  0  0
    4.2090   -0.4866   -0.0434 C   0  0  0  0  0  0  0  0  0  0  0  0
    5.1755   -1.0093   -0.1996 H   0  0  0  0  0  0  0  0  0  0  0  0
    4.1952   -0.1013    0.9959 H   0  0  0  0  0  0  0  0  0  0  0  0
    4.1766    0.3772   -0.7346 H   0  0  0  0  0  0  0  0  0  0  0  0
   -3.0819   -3.2010    0.7975 C   0  0  0  0  0  0  0  0  0  0  0  0
   -4.0278   -3.7089    0.5156 H   0  0  0  0  0  0  0  0  0  0  0  0
   -3.1683   -2.9010    1.8622 H   0  0  0  0  0  0  0  0  0  0  0  0
   -2.2703   -3.9537    0.7109 H   0  0  0  0  0  0  0  0  0  0  0  0
   -4.2087   -0.4896   -0.0437 C   0  0  0  0  0  0  0  0  0  0  0  0
   -4.1768    0.3743   -0.7348 H   0  0  0  0  0  0  0  0  0  0  0  0
   -4.1954   -0.1045    0.9957 H   0  0  0  0  0  0  0  0  0  0  0  0
   -5.1748   -1.0129   -0.2002 H   0  0  0  0  0  0  0  0  0  0  0  0
   -2.8148   -2.3426   -2.1203 C   0  0  0  0  0  0  0  0  0  0  0  0
   -3.7461   -2.9093   -2.3285 H   0  0  0  0  0  0  0  0  0  0  0  0
   -1.9562   -3.0238   -2.2948 H   0  0  0  0  0  0  0  0  0  0  0  0
   -2.7428   -1.5106   -2.8475 H   0  0  0  0  0  0  0  0  0  0  0  0
    0.0008   -2.1209    2.2371 C   0  0  0  0  0  0  0  0  0  0  0  0
   -0.9079   -2.6716    2.5444 H   0  0  0  0  0  0  0  0  0  0  0  0
    0.0008   -1.0905    2.6326 H   0  0  0  0  0  0  0  0  0  0  0  0
    0.9096   -2.6715    2.5442 H   0  0  0  0  0  0  0  0  0  0  0  0
   -1.2392   -0.9485    0.0868 N   0  0  0  0  0  2  0  0  0  0  0  0
  1  3  1  0  0  0  0
  2 13  1  0  0  0  0
  2  1  1  0  0  0  0
  2  5  1  0  0  0  0
  3 29  1  0  0  0  0
  4 21  1  0  0  0  0
  4 33  1  0  0  0  0
  4 17  1  0  0  0  0
  5  7  1  0  0  0  0
  6  5  1  0  0  0  0
  8  5  1  0  0  0  0
  9  2  1  0  0  0  0
 10  9  1  0  0  0  0
 11  9  1  0  0  0  0
 12  9  1  0  0  0  0
 13 15  1  0  0  0  0
 14 13  1  0  0  0  0
 16 13  1  0  0  0  0
 17 19  1  0  0  0  0
 18 17  1  0  0  0  0
 20 17  1  0  0  0  0
 21 23  1  0  0  0  0
 22 21  1  0  0  0  0
 24 21  1  0  0  0  0
 25  4  1  0  0  0  0
 26 25  1  0  0  0  0
 27 25  1  0  0  0  0
 28 25  1  0  0  0  0
 29 32  1  0  0  0  0
 29 30  1  0  0  0  0
 29 31  1  0  0  0  0
 33  3  1  0  0  0  0
M  END
