5,6
 OpenBabel05122313053D

 37 38  0  0  1  0  0  0  0  0999 V2000
   -3.6017   -1.8523    0.6086 Cl  0  0  0  0  0  0  0  0  0  0  0  0
   -1.7186    3.2318    0.3324 Cl  0  0  0  0  0  0  0  0  0  0  0  0
    3.6019   -1.8521    0.6089 Cl  0  0  0  0  0  0  0  0  0  0  0  0
    1.7184    3.2318    0.3320 Cl  0  0  0  0  0  0  0  0  0  0  0  0
   -1.4775    0.2561    0.8458 N   0  0  0  0  0  2  0  0  0  0  0  0
    1.4775    0.2562    0.8458 N   0  0  0  0  0  2  0  0  0  0  0  0
   -2.7094    0.6936    0.2733 C   0  0  0  0  0  0  0  0  0  0  0  0
   -3.7559   -0.2259    0.0249 C   0  0  0  0  0  0  0  0  0  0  0  0
   -4.9160    0.1651   -0.6599 C   0  0  0  0  0  0  0  0  0  0  0  0
   -5.6963   -0.5836   -0.8513 H   0  0  0  0  0  0  0  0  0  0  0  0
   -5.0577    1.4938   -1.0803 C   0  0  0  0  0  0  0  0  0  0  0  0
   -5.9616    1.8002   -1.6265 H   0  0  0  0  0  0  0  0  0  0  0  0
   -4.0665    2.4408   -0.7905 C   0  0  0  0  0  0  0  0  0  0  0  0
   -4.1755    3.4937   -1.0831 H   0  0  0  0  0  0  0  0  0  0  0  0
   -2.9103    2.0401   -0.1059 C   0  0  0  0  0  0  0  0  0  0  0  0
   -1.2862    0.3572    2.1277 C   0  0  2  0  0  3  0  0  0  0  0  0
    0.0000   -0.1452    2.7206 C   0  0  0  0  0  0  0  0  0  0  0  0
    0.0001   -1.2571    2.4893 H   0  0  0  0  0  0  0  0  0  0  0  0
    0.0000    0.0038    3.8143 H   0  0  0  0  0  0  0  0  0  0  0  0
    1.2862    0.3573    2.1277 C   0  0  1  0  0  3  0  0  0  0  0  0
   -2.3057    0.8961    3.0837 C   0  0  0  0  0  0  0  0  0  0  0  0
   -3.2754    1.1054    2.5985 H   0  0  0  0  0  0  0  0  0  0  0  0
   -1.9228    1.8339    3.5391 H   0  0  0  0  0  0  0  0  0  0  0  0
   -2.4590    0.1732    3.9113 H   0  0  0  0  0  0  0  0  0  0  0  0
    2.3058    0.8961    3.0837 C   0  0  0  0  0  0  0  0  0  0  0  0
    2.4596    0.1729    3.9109 H   0  0  0  0  0  0  0  0  0  0  0  0
    1.9227    1.8335    3.5397 H   0  0  0  0  0  0  0  0  0  0  0  0
    3.2753    1.1059    2.5984 H   0  0  0  0  0  0  0  0  0  0  0  0
    2.7094    0.6937    0.2732 C   0  0  0  0  0  0  0  0  0  0  0  0
    3.7559   -0.2258    0.0249 C   0  0  0  0  0  0  0  0  0  0  0  0
    4.9160    0.1652   -0.6598 C   0  0  0  0  0  0  0  0  0  0  0  0
    5.6964   -0.5834   -0.8512 H   0  0  0  0  0  0  0  0  0  0  0  0
    5.0577    1.4939   -1.0804 C   0  0  0  0  0  0  0  0  0  0  0  0
    5.9615    1.8003   -1.6267 H   0  0  0  0  0  0  0  0  0  0  0  0
    4.0663    2.4409   -0.7907 C   0  0  0  0  0  0  0  0  0  0  0  0
    4.1753    3.4937   -1.0834 H   0  0  0  0  0  0  0  0  0  0  0  0
    2.9102    2.0401   -0.1061 C   0  0  0  0  0  0  0  0  0  0  0  0
  7  5  1  0  0  0  0
  8  7  1  0  0  0  0
  8  1  1  0  0  0  0
  9  8  2  0  0  0  0
 10  9  1  0  0  0  0
 11 13  2  0  0  0  0
 11  9  1  0  0  0  0
 12 11  1  0  0  0  0
 13 15  1  0  0  0  0
 14 13  1  0  0  0  0
 15  7  2  0  0  0  0
 15  2  1  0  0  0  0
 16  5  1  1  0  0  0
 16 17  1  0  0  0  0
 16 21  1  0  0  0  0
 17 19  1  0  0  0  0
 18 17  1  0  0  0  0
 20  6  1  1  0  0  0
 20 17  1  0  0  0  0
 20 25  1  0  0  0  0
 21 23  1  0  0  0  0
 21 24  1  0  0  0  0
 22 21  1  0  0  0  0
 25 27  1  0  0  0  0
 25 26  1  0  0  0  0
 28 25  1  0  0  0  0
 29  6  1  0  0  0  0
 30 29  1  0  0  0  0
 30  3  1  0  0  0  0
 31 30  2  0  0  0  0
 32 31  1  0  0  0  0
 33 35  2  0  0  0  0
 33 31  1  0  0  0  0
 34 33  1  0  0  0  0
 35 37  1  0  0  0  0
 36 35  1  0  0  0  0
 37 29  2  0  0  0  0
 37  4  1  0  0  0  0
M  END
