4,7
 OpenBabel05122313053D

 50 52  0  0  0  0  0  0  0  0999 V2000
   -0.6150    6.0262    3.0939 O   0  0  0  0  0  0  0  0  0  0  0  0
   -7.2176   -2.8179   -1.5920 O   0  0  0  0  0  0  0  0  0  0  0  0
    3.3367   -5.0205    3.1415 O   0  0  0  0  0  0  0  0  0  0  0  0
   -0.8994    1.0928    0.4631 N   0  0  0  0  0  2  0  0  0  0  0  0
   -2.0586    0.5263    0.3187 N   0  0  0  0  0  0  0  0  0  0  0  0
   -1.2123   -1.7055    0.2874 N   0  0  0  0  0  2  0  0  0  0  0  0
    0.0427   -1.3979    0.4205 N   0  0  0  0  0  2  0  0  0  0  0  0
   -2.1632   -0.7855    0.0109 C   0  0  0  0  0  0  0  0  0  0  0  0
   -0.8980    2.3270    1.1460 C   0  0  0  0  0  0  0  0  0  0  0  0
    0.3312    2.8216    1.6478 C   0  0  0  0  0  0  0  0  0  0  0  0
    1.2340    2.2034    1.5247 H   0  0  0  0  0  0  0  0  0  0  0  0
    0.3933    4.0565    2.2883 C   0  0  0  0  0  0  0  0  0  0  0  0
    1.3418    4.4456    2.6852 H   0  0  0  0  0  0  0  0  0  0  0  0
   -0.7748    4.8337    2.4581 C   0  0  0  0  0  0  0  0  0  0  0  0
   -2.0086    4.3395    1.9773 C   0  0  0  0  0  0  0  0  0  0  0  0
   -2.9331    4.9201    2.0980 H   0  0  0  0  0  0  0  0  0  0  0  0
   -2.0665    3.0974    1.3355 C   0  0  0  0  0  0  0  0  0  0  0  0
   -3.0203    2.7035    0.9598 H   0  0  0  0  0  0  0  0  0  0  0  0
   -1.7575    6.8303    3.3148 C   0  0  0  0  0  0  0  0  0  0  0  0
   -2.2406    7.1385    2.3599 H   0  0  0  0  0  0  0  0  0  0  0  0
   -1.4071    7.7341    3.8468 H   0  0  0  0  0  0  0  0  0  0  0  0
   -2.5154    6.3116    3.9440 H   0  0  0  0  0  0  0  0  0  0  0  0
   -3.4912   -1.2884   -0.3991 C   0  0  0  0  0  0  0  0  0  0  0  0
   -4.5882   -0.4162   -0.5454 C   0  0  0  0  0  0  0  0  0  0  0  0
   -4.4422    0.6539   -0.3409 H   0  0  0  0  0  0  0  0  0  0  0  0
   -5.8493   -0.8845   -0.9391 C   0  0  0  0  0  0  0  0  0  0  0  0
   -6.6779   -0.1708   -1.0400 H   0  0  0  0  0  0  0  0  0  0  0  0
   -6.0374   -2.2575   -1.2013 C   0  0  0  0  0  0  0  0  0  0  0  0
   -4.9434   -3.1404   -1.0669 C   0  0  0  0  0  0  0  0  0  0  0  0
   -5.1052   -4.2063   -1.2841 H   0  0  0  0  0  0  0  0  0  0  0  0
   -3.6943   -2.6613   -0.6760 C   0  0  0  0  0  0  0  0  0  0  0  0
   -2.8442   -3.3516   -0.5800 H   0  0  0  0  0  0  0  0  0  0  0  0
   -8.3397   -1.9737   -1.7473 C   0  0  0  0  0  0  0  0  0  0  0  0
   -8.6155   -1.4662   -0.7949 H   0  0  0  0  0  0  0  0  0  0  0  0
   -9.1793   -2.6205   -2.0640 H   0  0  0  0  0  0  0  0  0  0  0  0
   -8.1717   -1.1947   -2.5255 H   0  0  0  0  0  0  0  0  0  0  0  0
    0.8338   -2.3464    1.1157 C   0  0  0  0  0  0  0  0  0  0  0  0
    2.0917   -1.9527    1.6288 C   0  0  0  0  0  0  0  0  0  0  0  0
    2.4167   -0.9119    1.4826 H   0  0  0  0  0  0  0  0  0  0  0  0
    2.9011   -2.8659    2.2984 C   0  0  0  0  0  0  0  0  0  0  0  0
    3.8799   -2.5694    2.7014 H   0  0  0  0  0  0  0  0  0  0  0  0
    2.4758   -4.2008    2.4799 C   0  0  0  0  0  0  0  0  0  0  0  0
    1.2132   -4.5967    1.9840 C   0  0  0  0  0  0  0  0  0  0  0  0
    0.8545   -5.6269    2.1110 H   0  0  0  0  0  0  0  0  0  0  0  0
    0.4004   -3.6738    1.3171 C   0  0  0  0  0  0  0  0  0  0  0  0
   -0.5845   -3.9695    0.9329 H   0  0  0  0  0  0  0  0  0  0  0  0
    2.9540   -6.3646    3.3598 C   0  0  0  0  0  0  0  0  0  0  0  0
    2.0272   -6.4387    3.9723 H   0  0  0  0  0  0  0  0  0  0  0  0
    3.7863   -6.8425    3.9091 H   0  0  0  0  0  0  0  0  0  0  0  0
    2.7918   -6.9113    2.4035 H   0  0  0  0  0  0  0  0  0  0  0  0
  1 19  1  0  0  0  0
  2 28  1  0  0  0  0
  3 47  1  0  0  0  0
  4  9  1  0  0  0  0
  5  4  1  0  0  0  0
  6  7  1  0  0  0  0
  7 37  1  0  0  0  0
  8  6  1  0  0  0  0
  8  5  2  0  0  0  0
  9 17  2  0  0  0  0
  9 10  1  0  0  0  0
 10 12  2  0  0  0  0
 11 10  1  0  0  0  0
 12 14  1  0  0  0  0
 12 13  1  0  0  0  0
 14  1  1  0  0  0  0
 15 16  1  0  0  0  0
 15 14  2  0  0  0  0
 17 15  1  0  0  0  0
 18 17  1  0  0  0  0
 19 21  1  0  0  0  0
 19 22  1  0  0  0  0
 20 19  1  0  0  0  0
 23  8  1  0  0  0  0
 24 23  1  0  0  0  0
 24 25  1  0  0  0  0
 26 24  2  0  0  0  0
 27 26  1  0  0  0  0
 28 29  2  0  0  0  0
 28 26  1  0  0  0  0
 29 31  1  0  0  0  0
 30 29  1  0  0  0  0
 31 32  1  0  0  0  0
 31 23  2  0  0  0  0
 33  2  1  0  0  0  0
 33 34  1  0  0  0  0
 35 33  1  0  0  0  0
 36 33  1  0  0  0  0
 37 45  2  0  0  0  0
 37 38  1  0  0  0  0
 38 40  2  0  0  0  0
 39 38  1  0  0  0  0
 40 42  1  0  0  0  0
 40 41  1  0  0  0  0
 42  3  1  0  0  0  0
 43 44  1  0  0  0  0
 43 42  2  0  0  0  0
 45 43  1  0  0  0  0
 46 45  1  0  0  0  0
 47 49  1  0  0  0  0
 47 48  1  0  0  0  0
 50 47  1  0  0  0  0
M  END
