1,17
 OpenBabel05122313053D

 52 54  0  0  0  0  0  0  0  0999 V2000
    1.5731    1.4131   -0.8232 N   0  0  0  0  0  0  0  0  0  0  0  0
    1.7914    2.7005   -1.1927 C   0  0  0  0  0  0  0  0  0  0  0  0
    2.8073    3.0417   -1.4267 H   0  0  0  0  0  0  0  0  0  0  0  0
    0.5911    3.4373   -1.1885 C   0  0  0  0  0  0  0  0  0  0  0  0
    0.4639    4.4866   -1.4783 H   0  0  0  0  0  0  0  0  0  0  0  0
   -0.4108    2.5568   -0.7579 C   0  0  0  0  0  0  0  0  0  0  0  0
   -1.4704    2.8147   -0.6941 H   0  0  0  0  0  0  0  0  0  0  0  0
    0.2108    1.2816   -0.5332 C   0  0  0  0  0  3  0  0  0  0  0  0
   -0.3471   -0.0113   -0.1787 C   0  0  0  0  0  3  0  0  0  0  0  0
    0.2801   -1.2342   -0.6411 C   0  0  0  0  0  0  0  0  0  0  0  0
   -0.3831   -2.4225   -1.0750 C   0  0  0  0  0  0  0  0  0  0  0  0
   -1.4671   -2.5775   -1.0802 H   0  0  0  0  0  0  0  0  0  0  0  0
    0.6107   -3.2876   -1.5593 C   0  0  0  0  0  0  0  0  0  0  0  0
    0.4661   -4.2800   -2.0021 H   0  0  0  0  0  0  0  0  0  0  0  0
    1.8399   -2.6163   -1.3905 C   0  0  0  0  0  0  0  0  0  0  0  0
    2.8551   -2.9632   -1.6200 H   0  0  0  0  0  0  0  0  0  0  0  0
    1.6451   -1.3794   -0.8614 N   0  0  0  0  0  2  0  0  0  0  0  0
   -1.4953   -0.1174    0.5693 N   0  0  0  0  0  0  0  0  0  0  0  0
   -2.2961    1.0434    0.9305 C   0  0  0  0  0  0  0  0  0  0  0  0
   -1.6371    1.9227    1.0734 H   0  0  0  0  0  0  0  0  0  0  0  0
   -2.7826    0.8425    1.9056 H   0  0  0  0  0  0  0  0  0  0  0  0
   -3.3678    1.3890   -0.1065 C   0  0  0  0  0  0  0  0  0  0  0  0
   -2.9289    1.3586   -1.1329 H   0  0  0  0  0  0  0  0  0  0  0  0
   -4.2057    0.6601   -0.0902 H   0  0  0  0  0  0  0  0  0  0  0  0
   -3.8012    2.7037    0.2199 O   0  0  0  0  0  0  0  0  0  0  0  0
   -4.8735    3.2137   -0.5499 C   0  0  0  0  0  0  0  0  0  0  0  0
   -4.8716    4.3118   -0.3900 H   0  0  0  0  0  0  0  0  0  0  0  0
   -4.7169    3.0250   -1.6395 H   0  0  0  0  0  0  0  0  0  0  0  0
   -6.2331    2.6627   -0.1425 C   0  0  0  0  0  0  0  0  0  0  0  0
   -6.3062    2.6786    0.9730 H   0  0  0  0  0  0  0  0  0  0  0  0
   -7.0459    3.3240   -0.5391 H   0  0  0  0  0  0  0  0  0  0  0  0
   -6.3627    1.3470   -0.6401 O   0  0  0  0  0  0  0  0  0  0  0  0
   -7.4082    0.5898   -0.0757 C   0  0  0  0  0  0  0  0  0  0  0  0
   -7.3222    0.5513    1.0388 H   0  0  0  0  0  0  0  0  0  0  0  0
   -8.4097    1.0274   -0.3167 H   0  0  0  0  0  0  0  0  0  0  0  0
   -7.3255   -0.8100   -0.6476 C   0  0  0  0  0  0  0  0  0  0  0  0
   -7.2733   -0.7246   -1.7589 H   0  0  0  0  0  0  0  0  0  0  0  0
   -8.2546   -1.3790   -0.3968 H   0  0  0  0  0  0  0  0  0  0  0  0
   -6.1776   -1.4665   -0.1424 O   0  0  0  0  0  0  0  0  0  0  0  0
   -5.7040   -2.4880   -0.9970 C   0  0  0  0  0  0  0  0  0  0  0  0
   -6.5077   -3.2341   -1.2246 H   0  0  0  0  0  0  0  0  0  0  0  0
   -5.3687   -2.0546   -1.9711 H   0  0  0  0  0  0  0  0  0  0  0  0
   -4.5469   -3.2263   -0.3479 C   0  0  0  0  0  0  0  0  0  0  0  0
   -4.2558   -4.0616   -1.0213 H   0  0  0  0  0  0  0  0  0  0  0  0
   -4.8805   -3.6702    0.6193 H   0  0  0  0  0  0  0  0  0  0  0  0
   -3.3969   -2.4216   -0.1557 O   0  0  0  0  0  0  0  0  0  0  0  0
   -3.2526   -1.8664    1.1358 C   0  0  0  0  0  0  0  0  0  0  0  0
   -3.4092   -2.6514    1.9168 H   0  0  0  0  0  0  0  0  0  0  0  0
   -4.0221   -1.0808    1.3183 H   0  0  0  0  0  0  0  0  0  0  0  0
   -1.8431   -1.3213    1.3385 C   0  0  0  0  0  0  0  0  0  0  0  0
   -1.7628   -1.0492    2.4165 H   0  0  0  0  0  0  0  0  0  0  0  0
   -1.0972   -2.1071    1.1325 H   0  0  0  0  0  0  0  0  0  0  0  0
  1  8  1  0  0  0  0
  2  4  1  0  0  0  0
  2  1  2  0  0  0  0
  3  2  1  0  0  0  0
  4  6  2  0  0  0  0
  5  4  1  0  0  0  0
  6  7  1  0  0  0  0
  6  8  1  0  0  0  0
  8  9  1  0  0  0  0
  9 18  1  0  0  0  0
 10  9  1  0  0  0  0
 11 10  2  0  0  0  0
 12 11  1  0  0  0  0
 13 15  2  0  0  0  0
 13 11  1  0  0  0  0
 14 13  1  0  0  0  0
 15 17  1  0  0  0  0
 16 15  1  0  0  0  0
 17 10  1  0  0  0  0
 18 19  1  0  0  0  0
 18 50  1  0  0  0  0
 19 20  1  0  0  0  0
 19 21  1  0  0  0  0
 22 24  1  0  0  0  0
 22 25  1  0  0  0  0
 22 19  1  0  0  0  0
 23 22  1  0  0  0  0
 26 27  1  0  0  0  0
 26 29  1  0  0  0  0
 26 25  1  0  0  0  0
 28 26  1  0  0  0  0
 29 30  1  0  0  0  0
 31 29  1  0  0  0  0
 32 29  1  0  0  0  0
 32 33  1  0  0  0  0
 33 34  1  0  0  0  0
 35 33  1  0  0  0  0
 36 38  1  0  0  0  0
 36 39  1  0  0  0  0
 36 33  1  0  0  0  0
 37 36  1  0  0  0  0
 40 43  1  0  0  0  0
 40 39  1  0  0  0  0
 41 40  1  0  0  0  0
 42 40  1  0  0  0  0
 43 46  1  0  0  0  0
 43 45  1  0  0  0  0
 44 43  1  0  0  0  0
 46 47  1  0  0  0  0
 47 49  1  0  0  0  0
 47 50  1  0  0  0  0
 47 48  1  0  0  0  0
 50 51  1  0  0  0  0
 52 50  1  0  0  0  0
M  END
