5,11
 OpenBabel05122313053D

 31 33  0  0  1  0  0  0  0  0999 V2000
   -5.9297   -2.1382   -0.4850 Br  0  0  0  0  0  0  0  0  0  0  0  0
   -0.5317    2.1201    1.7298 S   0  0  0  0  0  0  0  0  0  0  0  0
    0.8606    2.6030    1.6591 O   0  0  0  0  0  0  0  0  0  0  0  0
   -1.1549    1.8645    3.0595 O   0  0  0  0  0  0  0  0  0  0  0  0
   -0.6292    0.7478    0.7604 N   0  0  0  0  0  2  0  0  0  0  0  0
   -3.0883    0.4756    1.1564 C   0  0  0  0  0  0  0  0  0  0  0  0
   -3.1312    1.2742    1.9042 H   0  0  0  0  0  0  0  0  0  0  0  0
   -4.2820   -1.2671   -0.0747 C   0  0  0  0  0  0  0  0  0  0  0  0
   -1.9806    4.6927   -1.0824 C   0  0  0  0  0  0  0  0  0  0  0  0
   -1.7379    4.9729   -2.1188 H   0  0  0  0  0  0  0  0  0  0  0  0
   -0.6401   -1.4028   -0.8299 N   0  0  0  0  0  2  0  0  0  0  0  0
   -1.5467    3.3545    0.8818 C   0  0  0  0  0  0  0  0  0  0  0  0
   -2.9499   -2.8028   -1.5689 C   0  0  0  0  0  0  0  0  0  0  0  0
   -3.8620   -3.3492   -1.8501 H   0  0  0  0  0  0  0  0  0  0  0  0
   -4.2752   -0.2054    0.8247 C   0  0  0  0  0  0  0  0  0  0  0  0
   -5.2177    0.1084    1.2961 H   0  0  0  0  0  0  0  0  0  0  0  0
   -3.0639   -1.7093   -0.6649 C   0  0  0  0  0  0  0  0  0  0  0  0
   -1.8488    0.1285    0.5758 C   0  0  0  0  0  0  0  0  0  0  0  0
   -1.8497   -1.0097   -0.3191 C   0  0  1  0  0  3  0  0  0  0  0  0
   -2.5944    3.9797    1.5706 C   0  0  0  0  0  0  0  0  0  0  0  0
   -2.8020    3.6860    2.6102 H   0  0  0  0  0  0  0  0  0  0  0  0
   -0.5643   -2.4405   -1.6709 C   0  0  0  0  0  0  0  0  0  0  0  0
    0.4426   -2.7003   -2.0314 H   0  0  0  0  0  0  0  0  0  0  0  0
   -1.2209    3.7088   -0.4368 C   0  0  0  0  0  0  0  0  0  0  0  0
   -0.3812    3.2188   -0.9477 H   0  0  0  0  0  0  0  0  0  0  0  0
   -1.7093   -3.1639   -2.0707 C   0  0  0  0  0  0  0  0  0  0  0  0
   -1.5998   -4.0068   -2.7676 H   0  0  0  0  0  0  0  0  0  0  0  0
   -3.3449    4.9695    0.9159 C   0  0  0  0  0  0  0  0  0  0  0  0
   -4.1710    5.4677    1.4456 H   0  0  0  0  0  0  0  0  0  0  0  0
   -3.0426    5.3218   -0.4087 C   0  0  0  0  0  0  0  0  0  0  0  0
   -3.6362    6.0946   -0.9203 H   0  0  0  0  0  0  0  0  0  0  0  0
  1  8  1  0  0  0  0
  2  4  2  0  0  0  0
  3  2  2  0  0  0  0
  5  2  1  0  0  0  0
  6  7  1  0  0  0  0
  8 15  2  0  0  0  0
  9 24  2  0  0  0  0
  9 30  1  0  0  0  0
 10  9  1  0  0  0  0
 12 20  2  0  0  0  0
 12  2  1  0  0  0  0
 13 17  2  0  0  0  0
 14 13  1  0  0  0  0
 15  6  1  0  0  0  0
 15 16  1  0  0  0  0
 17 19  1  0  0  0  0
 17  8  1  0  0  0  0
 18  5  1  0  0  0  0
 18  6  2  0  0  0  0
 19 11  1  1  0  0  0
 19 18  1  0  0  0  0
 20 21  1  0  0  0  0
 22 11  1  0  0  0  0
 23 22  1  0  0  0  0
 24 12  1  0  0  0  0
 25 24  1  0  0  0  0
 26 22  2  0  0  0  0
 26 13  1  0  0  0  0
 27 26  1  0  0  0  0
 28 29  1  0  0  0  0
 28 20  1  0  0  0  0
 30 28  2  0  0  0  0
 31 30  1  0  0  0  0
M  END
