1,9
 OpenBabel05122313053D

 34 36  0  0  0  0  0  0  0  0999 V2000
    1.1781   -1.6141   -0.4060 N   0  0  0  0  0  2  0  0  0  0  0  0
   -0.0065   -1.9425    0.1509 N   0  0  0  0  0  0  0  0  0  0  0  0
    1.3258   -2.3784   -1.4975 C   0  0  0  0  0  3  0  0  0  0  0  0
    2.2371   -2.2565   -2.0979 H   0  0  0  0  0  0  0  0  0  0  0  0
    0.2066   -3.2274   -1.6498 C   0  0  0  0  0  0  0  0  0  0  0  0
    0.0279   -3.9718   -2.4317 H   0  0  0  0  0  0  0  0  0  0  0  0
   -0.6272   -2.9158   -0.5767 C   0  0  0  0  0  0  0  0  0  0  0  0
   -1.6047   -3.3097   -0.2820 H   0  0  0  0  0  0  0  0  0  0  0  0
    1.2619    1.4882   -0.3872 N   0  0  0  0  0  2  0  0  0  0  0  0
    0.1599    1.9829    0.2109 N   0  0  0  0  0  0  0  0  0  0  0  0
    1.6134    2.3589   -1.3464 C   0  0  0  0  0  3  0  0  0  0  0  0
    2.5022    2.1328   -1.9511 H   0  0  0  0  0  0  0  0  0  0  0  0
    0.7216    3.4543   -1.3595 C   0  0  0  0  0  0  0  0  0  0  0  0
    0.7422    4.3322   -2.0124 H   0  0  0  0  0  0  0  0  0  0  0  0
   -0.1921    3.1795   -0.3435 C   0  0  0  0  0  0  0  0  0  0  0  0
   -1.0477    3.7509    0.0339 H   0  0  0  0  0  0  0  0  0  0  0  0
   -0.4812   -1.2125    1.3330 C   0  0  0  0  0  0  0  0  0  0  0  0
   -1.1361   -1.9071    1.8929 H   0  0  0  0  0  0  0  0  0  0  0  0
    0.4177   -1.0053    1.9533 H   0  0  0  0  0  0  0  0  0  0  0  0
   -0.4662    1.2700    1.3437 C   0  0  0  0  0  0  0  0  0  0  0  0
    0.3603    1.0515    2.0545 H   0  0  0  0  0  0  0  0  0  0  0  0
   -1.1692    1.9960    1.7984 H   0  0  0  0  0  0  0  0  0  0  0  0
   -1.1468    0.0352    1.0388 N   0  0  0  0  0  0  0  0  0  0  0  0
   -2.4758    0.0369    0.5578 C   0  0  0  0  0  0  0  0  0  0  0  0
   -3.3066   -1.1067    0.6696 C   0  0  0  0  0  0  0  0  0  0  0  0
   -2.9363   -2.0296    1.1326 H   0  0  0  0  0  0  0  0  0  0  0  0
   -4.6349   -1.0910    0.2280 C   0  0  0  0  0  0  0  0  0  0  0  0
   -5.2726   -1.9811    0.3267 H   0  0  0  0  0  0  0  0  0  0  0  0
   -5.1632    0.0734   -0.3383 C   0  0  0  0  0  0  0  0  0  0  0  0
   -6.4387    0.0882   -0.7676 F   0  0  0  0  0  0  0  0  0  0  0  0
   -4.3716    1.2176   -0.4683 C   0  0  0  0  0  0  0  0  0  0  0  0
   -4.7975    2.1208   -0.9282 H   0  0  0  0  0  0  0  0  0  0  0  0
   -3.0411    1.1939   -0.0311 C   0  0  0  0  0  0  0  0  0  0  0  0
   -2.4340    2.0914   -0.1851 H   0  0  0  0  0  0  0  0  0  0  0  0
  1  2  1  0  0  0  0
  2 17  1  0  0  0  0
  3  1  1  0  0  0  0
  4  3  1  0  0  0  0
  5  3  1  0  0  0  0
  5  7  2  0  0  0  0
  6  5  1  0  0  0  0
  7  8  1  0  0  0  0
  7  2  1  0  0  0  0
  9 10  1  0  0  0  0
 10 20  1  0  0  0  0
 11  9  1  0  0  0  0
 12 11  1  0  0  0  0
 13 11  1  0  0  0  0
 13 15  2  0  0  0  0
 14 13  1  0  0  0  0
 15 16  1  0  0  0  0
 15 10  1  0  0  0  0
 17 18  1  0  0  0  0
 17 19  1  0  0  0  0
 20 22  1  0  0  0  0
 20 21  1  0  0  0  0
 23 17  1  0  0  0  0
 23 20  1  0  0  0  0
 24 25  1  0  0  0  0
 24 23  1  0  0  0  0
 25 26  1  0  0  0  0
 27 28  1  0  0  0  0
 27 25  2  0  0  0  0
 29 27  1  0  0  0  0
 30 29  1  0  0  0  0
 31 29  2  0  0  0  0
 31 33  1  0  0  0  0
 32 31  1  0  0  0  0
 33 24  2  0  0  0  0
 34 33  1  0  0  0  0
M  END
