1,2
 OpenBabel05122313053D

 70 76  0  0  0  0  0  0  0  0999 V2000
   -1.3218    0.2936    0.4254 N   0  0  0  0  0  2  0  0  0  0  0  0
    1.3358    0.4026    0.2464 N   0  0  0  0  0  2  0  0  0  0  0  0
   -0.7834    1.4863    0.3035 C   0  0  0  0  0  0  0  0  0  0  0  0
    0.6907    1.5471    0.2040 C   0  0  0  0  0  0  0  0  0  0  0  0
    1.0868    2.9626    0.1784 C   0  0  0  0  0  0  0  0  0  0  0  0
   -0.1364    3.7013    0.2665 C   0  0  0  0  0  0  0  0  0  0  0  0
   -1.2949    2.8636    0.3384 C   0  0  0  0  0  0  0  0  0  0  0  0
   -2.5480    3.4622    0.4634 C   0  0  0  0  0  0  0  0  0  0  0  0
   -3.4657    2.8620    0.5250 H   0  0  0  0  0  0  0  0  0  0  0  0
   -2.6230    4.8832    0.5072 C   0  0  0  0  0  0  0  0  0  0  0  0
   -3.6136    5.3525    0.6034 H   0  0  0  0  0  0  0  0  0  0  0  0
   -1.4919    5.6963    0.4328 C   0  0  0  0  0  0  0  0  0  0  0  0
   -1.5957    6.7916    0.4706 H   0  0  0  0  0  0  0  0  0  0  0  0
   -0.1922    5.1159    0.3161 C   0  0  0  0  0  0  0  0  0  0  0  0
    1.0587    5.8029    0.2630 C   0  0  0  0  0  0  0  0  0  0  0  0
    1.0753    6.9033    0.2929 H   0  0  0  0  0  0  0  0  0  0  0  0
    2.2531    5.0868    0.1822 C   0  0  0  0  0  0  0  0  0  0  0  0
    3.2054    5.6371    0.1492 H   0  0  0  0  0  0  0  0  0  0  0  0
    2.2910    3.6643    0.1397 C   0  0  0  0  0  0  0  0  0  0  0  0
    3.2554    3.1428    0.0750 H   0  0  0  0  0  0  0  0  0  0  0  0
   -2.7226    0.0966    0.4246 C   0  0  0  0  0  0  0  0  0  0  0  0
   -3.3382   -0.5913    1.4879 C   0  0  0  0  0  0  0  0  0  0  0  0
   -2.7231   -0.9377    2.3308 H   0  0  0  0  0  0  0  0  0  0  0  0
   -4.7161   -0.8126    1.4604 C   0  0  0  0  0  0  0  0  0  0  0  0
   -5.1950   -1.3339    2.3037 H   0  0  0  0  0  0  0  0  0  0  0  0
   -5.5182   -0.3942    0.3676 C   0  0  0  0  0  0  0  0  0  0  0  0
   -4.8658    0.2597   -0.7100 C   0  0  0  0  0  0  0  0  0  0  0  0
   -5.4421    0.5688   -1.5942 H   0  0  0  0  0  0  0  0  0  0  0  0
   -3.4940    0.5065   -0.6858 C   0  0  0  0  0  0  0  0  0  0  0  0
   -2.9858    0.9776   -1.5393 H   0  0  0  0  0  0  0  0  0  0  0  0
   -6.9527   -0.6660    0.3961 C   0  0  0  0  0  0  0  0  0  0  0  0
   -7.3017   -1.1871    1.3036 H   0  0  0  0  0  0  0  0  0  0  0  0
   -7.8646   -0.3464   -0.5640 C   0  0  0  0  0  0  0  0  0  0  0  0
   -7.5133    0.1705   -1.4735 H   0  0  0  0  0  0  0  0  0  0  0  0
   -9.3018   -0.6150   -0.5384 C   0  0  0  0  0  0  0  0  0  0  0  0
   -9.9551   -1.2646    0.5399 C   0  0  0  0  0  0  0  0  0  0  0  0
   -9.3738   -1.5937    1.4139 H   0  0  0  0  0  0  0  0  0  0  0  0
  -11.3334   -1.4963    0.5104 C   0  0  0  0  0  0  0  0  0  0  0  0
  -11.8179   -2.0031    1.3589 H   0  0  0  0  0  0  0  0  0  0  0  0
  -12.1020   -1.0872   -0.5946 C   0  0  0  0  0  0  0  0  0  0  0  0
  -13.1866   -1.2722   -0.6137 H   0  0  0  0  0  0  0  0  0  0  0  0
  -11.4741   -0.4428   -1.6717 C   0  0  0  0  0  0  0  0  0  0  0  0
  -12.0647   -0.1191   -2.5423 H   0  0  0  0  0  0  0  0  0  0  0  0
  -10.0934   -0.2107   -1.6421 C   0  0  0  0  0  0  0  0  0  0  0  0
   -9.6042    0.2942   -2.4902 H   0  0  0  0  0  0  0  0  0  0  0  0
    2.7337    0.3172    0.0523 C   0  0  0  0  0  0  0  0  0  0  0  0
    3.5375   -0.3366    1.0112 C   0  0  0  0  0  0  0  0  0  0  0  0
    3.0645   -0.7374    1.9193 H   0  0  0  0  0  0  0  0  0  0  0  0
    4.9097   -0.4591    0.8037 C   0  0  0  0  0  0  0  0  0  0  0  0
    5.5174   -0.9590    1.5717 H   0  0  0  0  0  0  0  0  0  0  0  0
    5.5256    0.0314   -0.3782 C   0  0  0  0  0  0  0  0  0  0  0  0
    4.6891    0.6462   -1.3442 C   0  0  0  0  0  0  0  0  0  0  0  0
    5.1350    1.0030   -2.2858 H   0  0  0  0  0  0  0  0  0  0  0  0
    3.3156    0.7947   -1.1395 C   0  0  0  0  0  0  0  0  0  0  0  0
    2.6681    1.2364   -1.9102 H   0  0  0  0  0  0  0  0  0  0  0  0
    6.9559   -0.0822   -0.6477 C   0  0  0  0  0  0  0  0  0  0  0  0
    7.2702    0.3180   -1.6266 H   0  0  0  0  0  0  0  0  0  0  0  0
    7.9028   -0.6169    0.1727 C   0  0  0  0  0  0  0  0  0  0  0  0
    7.5880   -1.0124    1.1536 H   0  0  0  0  0  0  0  0  0  0  0  0
    9.3357   -0.7335   -0.0949 C   0  0  0  0  0  0  0  0  0  0  0  0
   10.1722   -1.3076    0.8946 C   0  0  0  0  0  0  0  0  0  0  0  0
    9.7200   -1.6517    1.8382 H   0  0  0  0  0  0  0  0  0  0  0  0
   11.5512   -1.4436    0.6924 C   0  0  0  0  0  0  0  0  0  0  0  0
   12.1774   -1.8937    1.4777 H   0  0  0  0  0  0  0  0  0  0  0  0
   12.1322   -1.0080   -0.5087 C   0  0  0  0  0  0  0  0  0  0  0  0
   13.2152   -1.1137   -0.6723 H   0  0  0  0  0  0  0  0  0  0  0  0
   11.3183   -0.4365   -1.5037 C   0  0  0  0  0  0  0  0  0  0  0  0
   11.7657   -0.0944   -2.4495 H   0  0  0  0  0  0  0  0  0  0  0  0
    9.9417   -0.3009   -1.3020 C   0  0  0  0  0  0  0  0  0  0  0  0
    9.3241    0.1460   -2.0951 H   0  0  0  0  0  0  0  0  0  0  0  0
  3  7  1  0  0  0  0
  3  1  1  0  0  0  0
  4  2  1  0  0  0  0
  4  3  2  0  0  0  0
  5  4  1  0  0  0  0
  5  6  1  0  0  0  0
  6 14  2  0  0  0  0
  6  7  1  0  0  0  0
  7  8  2  0  0  0  0
  8 10  1  0  0  0  0
  8  9  1  0  0  0  0
 10 11  1  0  0  0  0
 12 13  1  0  0  0  0
 12 10  2  0  0  0  0
 14 12  1  0  0  0  0
 15 16  1  0  0  0  0
 15 14  1  0  0  0  0
 17 15  2  0  0  0  0
 18 17  1  0  0  0  0
 19  5  2  0  0  0  0
 19 17  1  0  0  0  0
 20 19  1  0  0  0  0
 21  1  1  0  0  0  0
 21 22  1  0  0  0  0
 22 23  1  0  0  0  0
 24 22  2  0  0  0  0
 24 25  1  0  0  0  0
 26 31  1  0  0  0  0
 26 24  1  0  0  0  0
 27 29  1  0  0  0  0
 27 26  2  0  0  0  0
 28 27  1  0  0  0  0
 29 21  2  0  0  0  0
 30 29  1  0  0  0  0
 31 32  1  0  0  0  0
 33 35  1  0  0  0  0
 33 31  2  0  0  0  0
 34 33  1  0  0  0  0
 35 36  1  0  0  0  0
 36 37  1  0  0  0  0
 38 36  2  0  0  0  0
 38 39  1  0  0  0  0
 40 38  1  0  0  0  0
 41 40  1  0  0  0  0
 42 44  1  0  0  0  0
 42 40  2  0  0  0  0
 43 42  1  0  0  0  0
 44 35  2  0  0  0  0
 45 44  1  0  0  0  0
 46  2  1  0  0  0  0
 46 47  1  0  0  0  0
 47 48  1  0  0  0  0
 49 47  2  0  0  0  0
 49 50  1  0  0  0  0
 51 49  1  0  0  0  0
 52 54  1  0  0  0  0
 52 51  2  0  0  0  0
 53 52  1  0  0  0  0
 54 46  2  0  0  0  0
 55 54  1  0  0  0  0
 56 51  1  0  0  0  0
 56 58  2  0  0  0  0
 57 56  1  0  0  0  0
 58 59  1  0  0  0  0
 60 58  1  0  0  0  0
 60 61  1  0  0  0  0
 61 62  1  0  0  0  0
 63 61  2  0  0  0  0
 63 64  1  0  0  0  0
 65 63  1  0  0  0  0
 66 65  1  0  0  0  0
 67 69  1  0  0  0  0
 67 65  2  0  0  0  0
 68 67  1  0  0  0  0
 69 60  2  0  0  0  0
 70 69  1  0  0  0  0
M  END
