1,18
 OpenBabel05122313053D

 34 33  0  0  0  0  0  0  0  0999 V2000
    1.2522    0.7230    0.0187 N   0  0  0  0  0  2  0  0  0  0  0  0
    0.7163    2.0693    0.2518 C   0  0  0  0  0  0  0  0  0  0  0  0
    2.7337    0.5682   -0.0142 C   0  0  0  0  0  0  0  0  0  0  0  0
    3.1065   -0.9229   -0.0197 C   0  0  0  0  0  0  0  0  0  0  0  0
    3.2689    1.2218   -1.3052 C   0  0  0  0  0  0  0  0  0  0  0  0
    3.3513    1.2336    1.2327 C   0  0  0  0  0  0  0  0  0  0  0  0
    0.7420    2.3125    1.3390 H   0  0  0  0  0  0  0  0  0  0  0  0
    1.3215    2.8377   -0.2742 H   0  0  0  0  0  0  0  0  0  0  0  0
    4.2098   -1.0211   -0.0545 H   0  0  0  0  0  0  0  0  0  0  0  0
    2.7453   -1.4357    0.8934 H   0  0  0  0  0  0  0  0  0  0  0  0
    2.6913   -1.4436   -0.9048 H   0  0  0  0  0  0  0  0  0  0  0  0
    4.3703    1.1129   -1.3650 H   0  0  0  0  0  0  0  0  0  0  0  0
    2.8199    0.7367   -2.1944 H   0  0  0  0  0  0  0  0  0  0  0  0
    3.0415    2.3059   -1.3474 H   0  0  0  0  0  0  0  0  0  0  0  0
    4.4464    1.0652    1.2485 H   0  0  0  0  0  0  0  0  0  0  0  0
    2.9207    0.7990    2.1571 H   0  0  0  0  0  0  0  0  0  0  0  0
    3.1851    2.3287    1.2496 H   0  0  0  0  0  0  0  0  0  0  0  0
   -1.2522    0.7229   -0.0189 N   0  0  0  0  0  2  0  0  0  0  0  0
   -0.7165    2.0692   -0.2523 C   0  0  0  0  0  0  0  0  0  0  0  0
   -2.7337    0.5681    0.0143 C   0  0  0  0  0  0  0  0  0  0  0  0
   -3.1067   -0.9229    0.0203 C   0  0  0  0  0  0  0  0  0  0  0  0
   -3.2685    1.2221    1.3053 C   0  0  0  0  0  0  0  0  0  0  0  0
   -3.3516    1.2332   -1.2326 C   0  0  0  0  0  0  0  0  0  0  0  0
   -0.7421    2.3123   -1.3395 H   0  0  0  0  0  0  0  0  0  0  0  0
   -1.3217    2.8376    0.2736 H   0  0  0  0  0  0  0  0  0  0  0  0
   -4.2099   -1.0211    0.0555 H   0  0  0  0  0  0  0  0  0  0  0  0
   -2.7458   -1.4360   -0.8928 H   0  0  0  0  0  0  0  0  0  0  0  0
   -2.6912   -1.4435    0.9054 H   0  0  0  0  0  0  0  0  0  0  0  0
   -4.3700    1.1134    1.3654 H   0  0  0  0  0  0  0  0  0  0  0  0
   -2.8194    0.7372    2.1945 H   0  0  0  0  0  0  0  0  0  0  0  0
   -3.0409    2.3062    1.3472 H   0  0  0  0  0  0  0  0  0  0  0  0
   -4.4467    1.0649   -1.2481 H   0  0  0  0  0  0  0  0  0  0  0  0
   -2.9213    0.7984   -2.1569 H   0  0  0  0  0  0  0  0  0  0  0  0
   -3.1854    2.3284   -1.2497 H   0  0  0  0  0  0  0  0  0  0  0  0
  1  2  1  0  0  0  0
  2  7  1  0  0  0  0
  3  1  1  0  0  0  0
  3  6  1  0  0  0  0
  4  3  1  0  0  0  0
  4 10  1  0  0  0  0
  5  3  1  0  0  0  0
  6 15  1  0  0  0  0
  6 17  1  0  0  0  0
  6 16  1  0  0  0  0
  8  2  1  0  0  0  0
  9  4  1  0  0  0  0
 11  4  1  0  0  0  0
 12  5  1  0  0  0  0
 13  5  1  0  0  0  0
 14  5  1  0  0  0  0
 18 20  1  0  0  0  0
 19 18  1  0  0  0  0
 19  2  1  0  0  0  0
 19 25  1  0  0  0  0
 20 21  1  0  0  0  0
 20 22  1  0  0  0  0
 21 26  1  0  0  0  0
 21 28  1  0  0  0  0
 22 31  1  0  0  0  0
 22 29  1  0  0  0  0
 22 30  1  0  0  0  0
 23 20  1  0  0  0  0
 24 19  1  0  0  0  0
 27 21  1  0  0  0  0
 32 23  1  0  0  0  0
 33 23  1  0  0  0  0
 34 23  1  0  0  0  0
M  END
