2,3
 OpenBabel05122313053D

 20 21  0  0  1  0  0  0  0  0999 V2000
    4.0323    1.5387    1.2389 O   0  0  0  0  0  0  0  0  0  0  0  0
    0.8654    1.7394   -0.5403 N   0  0  0  0  0  0  0  0  0  0  0  0
    1.8172   -0.8662   -0.2884 N   0  0  0  0  0  2  0  0  0  0  0  0
    0.3196    2.8442   -1.1131 C   0  0  0  0  0  0  0  0  0  0  0  0
    1.1648    3.9607   -0.9110 C   0  0  0  0  0  0  0  0  0  0  0  0
    2.2670    3.5028   -0.1683 C   0  0  0  0  0  0  0  0  0  0  0  0
    2.0675    2.1145    0.0419 C   0  0  0  0  0  3  0  0  0  0  0  0
    3.0361    1.1880    0.5949 C   0  0  0  0  0  0  0  0  0  0  0  0
    2.9564   -0.2774    0.1606 C   0  0  2  0  0  3  0  0  0  0  0  0
    4.1720   -0.9854    0.1539 C   0  0  0  0  0  0  0  0  0  0  0  0
    4.2292   -2.2726   -0.3859 C   0  0  0  0  0  0  0  0  0  0  0  0
    3.0582   -2.8320   -0.9179 C   0  0  0  0  0  0  0  0  0  0  0  0
    1.8675   -2.1058   -0.8359 C   0  0  0  0  0  0  0  0  0  0  0  0
   -0.6404    2.7930   -1.6422 H   0  0  0  0  0  0  0  0  0  0  0  0
    0.9957    4.9733   -1.2964 H   0  0  0  0  0  0  0  0  0  0  0  0
    3.1539    4.0585    0.1556 H   0  0  0  0  0  0  0  0  0  0  0  0
    5.0435   -0.4636    0.5740 H   0  0  0  0  0  0  0  0  0  0  0  0
    5.1781   -2.8297   -0.4063 H   0  0  0  0  0  0  0  0  0  0  0  0
    3.0485   -3.8290   -1.3800 H   0  0  0  0  0  0  0  0  0  0  0  0
    0.9171   -2.5162   -1.2016 H   0  0  0  0  0  0  0  0  0  0  0  0
  2  7  1  0  0  0  0
  3  9  1  0  0  0  0
  4  5  1  0  0  0  0
  4  2  2  0  0  0  0
  5  6  2  0  0  0  0
  6  7  1  0  0  0  0
  6 16  1  0  0  0  0
  7  8  1  0  0  0  0
  8  1  2  0  0  0  0
  9  8  1  6  0  0  0
 10  9  1  0  0  0  0
 10 17  1  0  0  0  0
 11 10  2  0  0  0  0
 12 13  2  0  0  0  0
 12 11  1  0  0  0  0
 13  3  1  0  0  0  0
 14  4  1  0  0  0  0
 15  5  1  0  0  0  0
 18 11  1  0  0  0  0
 19 12  1  0  0  0  0
 20 13  1  0  0  0  0
M  END
