1,4
 OpenBabel05122313053D

 32 35  0  0  1  0  0  0  0  0999 V2000
    1.5130   -0.3559   -0.1991 N   0  0  0  0  0  2  0  0  0  0  0  0
    2.9644   -2.0237   -0.5179 N   0  0  0  0  0  0  0  0  0  0  0  0
    3.3173   -2.9759   -0.6099 H   0  0  0  0  0  0  0  0  0  0  0  0
   -1.5125   -0.3558   -0.2001 N   0  0  0  0  0  2  0  0  0  0  0  0
   -2.9643   -2.0235   -0.5175 N   0  0  0  0  0  0  0  0  0  0  0  0
   -3.3174   -2.9757   -0.6088 H   0  0  0  0  0  0  0  0  0  0  0  0
    2.7426    0.1894   -0.5151 C   0  0  0  0  0  0  0  0  0  0  0  0
    3.1340    1.5392   -0.6273 C   0  0  0  0  0  0  0  0  0  0  0  0
    2.3947    2.3351   -0.4434 H   0  0  0  0  0  0  0  0  0  0  0  0
    4.4666    1.7864   -0.9642 C   0  0  0  0  0  0  0  0  0  0  0  0
    4.8122    2.8262   -1.0623 H   0  0  0  0  0  0  0  0  0  0  0  0
    5.3926    0.7323   -1.1823 C   0  0  0  0  0  0  0  0  0  0  0  0
    6.4323    0.9790   -1.4447 H   0  0  0  0  0  0  0  0  0  0  0  0
    5.0221   -0.6125   -1.0684 C   0  0  0  0  0  0  0  0  0  0  0  0
    5.7449   -1.4245   -1.2330 H   0  0  0  0  0  0  0  0  0  0  0  0
    3.6828   -0.8642   -0.7285 C   0  0  0  0  0  0  0  0  0  0  0  0
    1.6556   -1.6869   -0.2110 C   0  0  2  0  0  3  0  0  0  0  0  0
    0.6839   -2.7281    0.0293 C   0  0  0  0  0  0  0  0  0  0  0  0
    1.1443   -3.7152    0.1986 H   0  0  0  0  0  0  0  0  0  0  0  0
   -0.6838   -2.7280    0.0293 C   0  0  0  0  0  0  0  0  0  0  0  0
   -1.1442   -3.7152    0.1987 H   0  0  0  0  0  0  0  0  0  0  0  0
   -1.6554   -1.6869   -0.2112 C   0  0  1  0  0  3  0  0  0  0  0  0
   -3.6826   -0.8641   -0.7285 C   0  0  0  0  0  0  0  0  0  0  0  0
   -5.0219   -0.6123   -1.0681 C   0  0  0  0  0  0  0  0  0  0  0  0
   -5.7449   -1.4243   -1.2321 H   0  0  0  0  0  0  0  0  0  0  0  0
   -5.3922    0.7325   -1.1826 C   0  0  0  0  0  0  0  0  0  0  0  0
   -6.4320    0.9792   -1.4448 H   0  0  0  0  0  0  0  0  0  0  0  0
   -4.4660    1.7866   -0.9653 C   0  0  0  0  0  0  0  0  0  0  0  0
   -4.8115    2.8264   -1.0638 H   0  0  0  0  0  0  0  0  0  0  0  0
   -3.1333    1.5392   -0.6287 C   0  0  0  0  0  0  0  0  0  0  0  0
   -2.3939    2.3352   -0.4453 H   0  0  0  0  0  0  0  0  0  0  0  0
   -2.7421    0.1895   -0.5159 C   0  0  0  0  0  0  0  0  0  0  0  0
  2 17  1  0  0  0  0
  3  2  1  0  0  0  0
  5 22  1  0  0  0  0
  6  5  1  0  0  0  0
  7  1  1  0  0  0  0
  8  7  1  0  0  0  0
  8  9  1  0  0  0  0
 10  8  2  0  0  0  0
 11 10  1  0  0  0  0
 12 14  2  0  0  0  0
 12 10  1  0  0  0  0
 13 12  1  0  0  0  0
 14 16  1  0  0  0  0
 15 14  1  0  0  0  0
 16  2  1  0  0  0  0
 16  7  2  0  0  0  0
 17  1  1  0  0  0  0
 17 18  1  6  0  0  0
 18 20  2  0  0  0  0
 18 19  1  0  0  0  0
 20 21  1  0  0  0  0
 22  4  1  0  0  0  0
 22 20  1  6  0  0  0
 23  5  1  0  0  0  0
 23 32  1  0  0  0  0
 24 23  2  0  0  0  0
 25 24  1  0  0  0  0
 26 24  1  0  0  0  0
 26 28  2  0  0  0  0
 27 26  1  0  0  0  0
 28 30  1  0  0  0  0
 29 28  1  0  0  0  0
 30 32  2  0  0  0  0
 30 31  1  0  0  0  0
 32  4  1  0  0  0  0
M  END
