2,4
 OpenBabel05122313053D

 43 44  0  0  0  0  0  0  0  0999 V2000
   -1.2408   -1.7233   -1.3943 N   0  0  0  0  0  0  0  0  0  0  0  0
   -1.4744   -0.7494   -0.4805 N   0  0  0  0  0  2  0  0  0  0  0  0
    1.2712   -1.6887   -1.4046 N   0  0  0  0  0  0  0  0  0  0  0  0
    1.4951   -0.7066   -0.4956 N   0  0  0  0  0  2  0  0  0  0  0  0
   -2.1455   -2.7157   -1.2418 C   0  0  0  0  0  3  0  0  0  0  0  0
   -3.0012   -2.3712   -0.1876 C   0  0  0  0  0  0  0  0  0  0  0  0
   -2.5378   -1.1158    0.2710 C   0  0  0  0  0  0  0  0  0  0  0  0
   -3.0817   -0.2109    1.3630 C   0  0  0  0  0  0  0  0  0  0  0  0
   -3.7706    1.0053    0.7030 C   0  0  0  0  0  0  0  0  0  0  0  0
   -1.9254    0.2765    2.2610 C   0  0  0  0  0  0  0  0  0  0  0  0
   -4.1032   -0.9788    2.2192 C   0  0  0  0  0  0  0  0  0  0  0  0
    2.1882   -2.6695   -1.2498 C   0  0  0  0  0  3  0  0  0  0  0  0
    3.0415   -2.3106   -0.2001 C   0  0  0  0  0  0  0  0  0  0  0  0
    2.5644   -1.0583    0.2553 C   0  0  0  0  0  0  0  0  0  0  0  0
    3.1294   -0.1462    1.3310 C   0  0  0  0  0  0  0  0  0  0  0  0
    4.0796    0.8735    0.6607 C   0  0  0  0  0  0  0  0  0  0  0  0
    1.9919    0.6035    2.0511 C   0  0  0  0  0  0  0  0  0  0  0  0
    3.9162   -0.9798    2.3594 C   0  0  0  0  0  0  0  0  0  0  0  0
    0.0099   -1.5570   -2.3070 B   0  0  0  0  0  0  0  0  0  0  0  0
   -2.1200   -3.5951   -1.8943 H   0  0  0  0  0  0  0  0  0  0  0  0
   -3.8491   -2.9484    0.1913 H   0  0  0  0  0  0  0  0  0  0  0  0
   -4.1636    1.6988    1.4748 H   0  0  0  0  0  0  0  0  0  0  0  0
   -4.6153    0.6820    0.0624 H   0  0  0  0  0  0  0  0  0  0  0  0
   -3.0572    1.5647    0.0666 H   0  0  0  0  0  0  0  0  0  0  0  0
   -2.3102    0.9286    3.0712 H   0  0  0  0  0  0  0  0  0  0  0  0
   -1.1912    0.8746    1.6827 H   0  0  0  0  0  0  0  0  0  0  0  0
   -1.3868   -0.5755    2.7224 H   0  0  0  0  0  0  0  0  0  0  0  0
   -4.4911   -0.3265    3.0272 H   0  0  0  0  0  0  0  0  0  0  0  0
   -3.6460   -1.8728    2.6891 H   0  0  0  0  0  0  0  0  0  0  0  0
   -4.9696   -1.3125    1.6137 H   0  0  0  0  0  0  0  0  0  0  0  0
    2.1700   -3.5531   -1.8970 H   0  0  0  0  0  0  0  0  0  0  0  0
    3.8973   -2.8765    0.1788 H   0  0  0  0  0  0  0  0  0  0  0  0
    4.5083    1.5633    1.4170 H   0  0  0  0  0  0  0  0  0  0  0  0
    3.5406    1.4776   -0.0952 H   0  0  0  0  0  0  0  0  0  0  0  0
    4.9157    0.3565    0.1488 H   0  0  0  0  0  0  0  0  0  0  0  0
    1.4262    1.2543    1.3511 H   0  0  0  0  0  0  0  0  0  0  0  0
    2.4030    1.2611    2.8434 H   0  0  0  0  0  0  0  0  0  0  0  0
    1.2770   -0.1012    2.5208 H   0  0  0  0  0  0  0  0  0  0  0  0
    4.3135   -0.3226    3.1591 H   0  0  0  0  0  0  0  0  0  0  0  0
    4.7803   -1.4930    1.8922 H   0  0  0  0  0  0  0  0  0  0  0  0
    3.2732   -1.7494    2.8317 H   0  0  0  0  0  0  0  0  0  0  0  0
    0.0177   -2.3893   -3.2014 H   0  0  0  0  0  0  0  0  0  0  0  0
   -0.0079   -0.3789   -2.7107 H   0  0  0  0  0  0  0  0  0  0  0  0
  1  5  1  0  0  0  0
  1  2  1  0  0  0  0
  2  7  1  0  0  0  0
  3 12  1  0  0  0  0
  3  4  1  0  0  0  0
  4 14  1  0  0  0  0
  5  6  1  0  0  0  0
  6 21  1  0  0  0  0
  6  7  2  0  0  0  0
  7  8  1  0  0  0  0
  8 11  1  0  0  0  0
  8 10  1  0  0  0  0
  9  8  1  0  0  0  0
  9 22  1  0  0  0  0
 10 27  1  0  0  0  0
 10 25  1  0  0  0  0
 11 29  1  0  0  0  0
 11 28  1  0  0  0  0
 12 13  1  0  0  0  0
 13 32  1  0  0  0  0
 13 14  2  0  0  0  0
 14 15  1  0  0  0  0
 15 17  1  0  0  0  0
 15 18  1  0  0  0  0
 16 15  1  0  0  0  0
 16 33  1  0  0  0  0
 17 38  1  0  0  0  0
 17 37  1  0  0  0  0
 18 41  1  0  0  0  0
 18 39  1  0  0  0  0
 19  3  1  0  0  0  0
 19  1  1  0  0  0  0
 20  5  1  0  0  0  0
 23  9  1  0  0  0  0
 24  9  1  0  0  0  0
 26 10  1  0  0  0  0
 30 11  1  0  0  0  0
 31 12  1  0  0  0  0
 34 16  1  0  0  0  0
 35 16  1  0  0  0  0
 36 17  1  0  0  0  0
 40 18  1  0  0  0  0
 42 19  1  0  0  0  0
 43 19  1  0  0  0  0
M  END
