1,8
 OpenBabel05122313053D

 12 12  0  0  0  0  0  0  0  0999 V2000
    0.0861    0.5393    1.6795 N   0  0  0  0  0  1  0  0  0  0  0  0
    0.1239    1.7318    2.1075 N   0  0  0  0  0  0  0  0  0  0  0  0
    0.0409    2.5656    0.9996 C   0  0  0  0  0  0  0  0  0  0  0  0
    0.0517    3.9694    1.0780 C   0  0  0  0  0  0  0  0  0  0  0  0
   -0.1020    4.7098   -0.0937 C   0  0  0  0  0  0  0  0  0  0  0  0
   -0.2622    4.0238   -1.3132 C   0  0  0  0  0  0  0  0  0  0  0  0
   -0.2381    2.6297   -1.3285 C   0  0  0  0  0  0  0  0  0  0  0  0
   -0.0758    1.8899   -0.2040 N   0  0  0  0  0  2  0  0  0  0  0  0
    0.1723    4.4319    2.0663 H   0  0  0  0  0  0  0  0  0  0  0  0
   -0.1036    5.8094   -0.0619 H   0  0  0  0  0  0  0  0  0  0  0  0
   -0.4063    4.5639   -2.2589 H   0  0  0  0  0  0  0  0  0  0  0  0
   -0.3465    2.0503   -2.2572 H   0  0  0  0  0  0  0  0  0  0  0  0
  1  2  1  0  0  0  0
  3  4  1  0  0  0  0
  3  2  2  0  0  0  0
  4  9  1  0  0  0  0
  5 10  1  0  0  0  0
  5  4  2  0  0  0  0
  6  5  1  0  0  0  0
  7  6  2  0  0  0  0
  7  8  1  0  0  0  0
  8  3  1  0  0  0  0
 11  6  1  0  0  0  0
 12  7  1  0  0  0  0
M  END
