2,4
 OpenBabel05122313053D

 37 39  0  0  1  0  0  0  0  0999 V2000
   -3.4452    1.0348   -1.5841 Br  0  0  0  0  0  0  0  0  0  0  0  0
    0.6347    0.1275   -0.3808 N   0  0  0  0  0  2  0  0  0  0  0  0
   -0.6849    0.0976   -0.2637 N   0  0  0  0  0  0  0  0  0  0  0  0
    3.1907   -0.3318   -0.2208 N   0  0  0  0  0  2  0  0  0  0  0  0
   -0.5305    2.6743    0.1831 N   0  0  0  0  0  0  0  0  0  0  0  0
   -0.5963   -2.1805   -0.4060 O   0  0  0  0  0  0  0  0  0  0  0  0
   -2.7191   -1.2294    0.1100 C   0  0  0  0  0  0  0  0  0  0  0  0
   -3.7555   -0.3778   -0.3330 C   0  0  0  0  0  0  0  0  0  0  0  0
   -5.0778   -0.5694    0.0979 C   0  0  0  0  0  0  0  0  0  0  0  0
   -5.3756   -1.6083    0.9910 C   0  0  0  0  0  0  0  0  0  0  0  0
   -4.3593   -2.4633    1.4462 C   0  0  0  0  0  0  0  0  0  0  0  0
   -3.0479   -2.2774    1.0012 C   0  0  0  0  0  0  0  0  0  0  0  0
   -1.2719   -1.1619   -0.2498 C   0  0  0  0  0  0  0  0  0  0  0  0
    1.3533    1.2040   -0.1544 C   0  0  1  0  0  3  0  0  0  0  0  0
    0.8053    2.4841    0.3426 C   0  0  0  0  0  0  0  0  0  0  0  0
    1.5953    3.4337    1.0347 C   0  0  0  0  0  0  0  0  0  0  0  0
    0.9921    4.6026    1.5106 C   0  0  0  0  0  0  0  0  0  0  0  0
   -0.3803    4.8038    1.2998 C   0  0  0  0  0  0  0  0  0  0  0  0
   -1.1004    3.7942    0.6441 C   0  0  0  0  0  0  0  0  0  0  0  0
    2.8086    0.9591   -0.3539 C   0  0  2  0  0  3  0  0  0  0  0  0
    3.7343    1.9472   -0.7456 C   0  0  0  0  0  0  0  0  0  0  0  0
    5.0689    1.5758   -0.9634 C   0  0  0  0  0  0  0  0  0  0  0  0
    5.4461    0.2353   -0.8049 C   0  0  0  0  0  0  0  0  0  0  0  0
    4.4590   -0.6960   -0.4476 C   0  0  0  0  0  0  0  0  0  0  0  0
   -1.1591    1.0189   -0.0890 H   0  0  0  0  0  0  0  0  0  0  0  0
   -5.8699    0.0943   -0.2758 H   0  0  0  0  0  0  0  0  0  0  0  0
   -6.4141   -1.7478    1.3273 H   0  0  0  0  0  0  0  0  0  0  0  0
   -4.5890   -3.2767    2.1496 H   0  0  0  0  0  0  0  0  0  0  0  0
   -2.2241   -2.9203    1.3452 H   0  0  0  0  0  0  0  0  0  0  0  0
    2.6586    3.2391    1.2252 H   0  0  0  0  0  0  0  0  0  0  0  0
    1.5905    5.3484    2.0553 H   0  0  0  0  0  0  0  0  0  0  0  0
   -0.8892    5.7114    1.6546 H   0  0  0  0  0  0  0  0  0  0  0  0
   -2.1891    3.8823    0.4856 H   0  0  0  0  0  0  0  0  0  0  0  0
    3.4082    2.9822   -0.9173 H   0  0  0  0  0  0  0  0  0  0  0  0
    5.8053    2.3316   -1.2759 H   0  0  0  0  0  0  0  0  0  0  0  0
    6.4815   -0.0933   -0.9731 H   0  0  0  0  0  0  0  0  0  0  0  0
    4.6475   -1.7812   -0.3637 H   0  0  0  0  0  0  0  0  0  0  0  0
  1  8  1  0  0  0  0
  2  3  1  0  0  0  0
  3 13  1  0  0  0  0
  3 25  1  0  0  0  0
  5 15  2  0  0  0  0
  5 19  1  0  0  0  0
  6 13  2  0  0  0  0
  7 12  1  0  0  0  0
  8  9  1  0  0  0  0
  8  7  2  0  0  0  0
  9 10  2  0  0  0  0
 10 27  1  0  0  0  0
 10 11  1  0  0  0  0
 11 28  1  0  0  0  0
 12 29  1  0  0  0  0
 12 11  2  0  0  0  0
 13  7  1  0  0  0  0
 14  2  1  1  0  0  0
 14 15  1  0  0  0  0
 15 16  1  0  0  0  0
 16 30  1  0  0  0  0
 16 17  2  0  0  0  0
 17 31  1  0  0  0  0
 18 17  1  0  0  0  0
 18 32  1  0  0  0  0
 19 18  2  0  0  0  0
 20  4  1  0  0  0  0
 20 14  1  6  0  0  0
 21 20  1  0  0  0  0
 22 23  1  0  0  0  0
 22 21  2  0  0  0  0
 23 24  2  0  0  0  0
 24 37  1  0  0  0  0
 24  4  1  0  0  0  0
 26  9  1  0  0  0  0
 33 19  1  0  0  0  0
 34 21  1  0  0  0  0
 35 22  1  0  0  0  0
 36 23  1  0  0  0  0
M  END
