1,13
 OpenBabel05122313053D

 27 28  0  0  0  0  0  0  0  0999 V2000
    0.7295   -1.3548   -0.4848 N   0  0  0  0  0  2  0  0  0  0  0  0
    1.4874   -1.8870   -1.4595 C   0  0  0  0  0  3  0  0  0  0  0  0
    2.6820   -2.4217   -0.9245 C   0  0  0  0  0  0  0  0  0  0  0  0
    2.6103   -2.1744    0.4430 C   0  0  0  0  0  0  0  0  0  0  0  0
    1.4299   -1.5222    0.6611 N   0  0  0  0  0  0  0  0  0  0  0  0
    0.7497   -1.2351    1.9002 C   0  0  0  0  0  0  0  0  0  0  0  0
   -0.0522    0.0014    1.7714 N   0  0  0  0  0  0  0  0  0  0  0  0
    0.7478    1.2394    1.8977 C   0  0  0  0  0  0  0  0  0  0  0  0
    1.4291    1.5239    0.6586 N   0  0  0  0  0  0  0  0  0  0  0  0
    2.6093    2.1765    0.4402 C   0  0  0  0  0  3  0  0  0  0  0  0
    2.6826    2.4197   -0.9279 C   0  0  0  0  0  0  0  0  0  0  0  0
    1.4891    1.8824   -1.4630 C   0  0  0  0  0  0  0  0  0  0  0  0
    0.7304    1.3523   -0.4878 N   0  0  0  0  0  2  0  0  0  0  0  0
   -1.0857    0.0018    2.8456 C   0  0  0  0  0  0  0  0  0  0  0  0
    1.1583   -1.8537   -2.5042 H   0  0  0  0  0  0  0  0  0  0  0  0
    3.4937   -2.9172   -1.4661 H   0  0  0  0  0  0  0  0  0  0  0  0
    3.2902   -2.4209    1.2662 H   0  0  0  0  0  0  0  0  0  0  0  0
    0.0439   -2.0575    2.1379 H   0  0  0  0  0  0  0  0  0  0  0  0
    1.5042   -1.1673    2.7136 H   0  0  0  0  0  0  0  0  0  0  0  0
    1.5015    1.1749    2.7121 H   0  0  0  0  0  0  0  0  0  0  0  0
    0.0406    2.0615    2.1322 H   0  0  0  0  0  0  0  0  0  0  0  0
    3.2878    2.4260    1.2635 H   0  0  0  0  0  0  0  0  0  0  0  0
    3.4946    2.9143   -1.4699 H   0  0  0  0  0  0  0  0  0  0  0  0
    1.1615    1.8460   -2.5079 H   0  0  0  0  0  0  0  0  0  0  0  0
   -1.7229   -0.8938    2.7468 H   0  0  0  0  0  0  0  0  0  0  0  0
   -1.7242    0.8962    2.7449 H   0  0  0  0  0  0  0  0  0  0  0  0
   -0.6092    0.0032    3.8500 H   0  0  0  0  0  0  0  0  0  0  0  0
  1  5  1  0  0  0  0
  2  3  1  0  0  0  0
  2  1  1  0  0  0  0
  3  4  2  0  0  0  0
  4  5  1  0  0  0  0
  4 17  1  0  0  0  0
  5  6  1  0  0  0  0
  6 18  1  0  0  0  0
  6 19  1  0  0  0  0
  7  8  1  0  0  0  0
  7  6  1  0  0  0  0
  7 14  1  0  0  0  0
  8 21  1  0  0  0  0
  8 20  1  0  0  0  0
  9  8  1  0  0  0  0
 10  9  1  0  0  0  0
 10 22  1  0  0  0  0
 11 10  1  0  0  0  0
 12 11  2  0  0  0  0
 12 13  1  0  0  0  0
 13  9  1  0  0  0  0
 14 27  1  0  0  0  0
 15  2  1  0  0  0  0
 16  3  1  0  0  0  0
 23 11  1  0  0  0  0
 24 12  1  0  0  0  0
 25 14  1  0  0  0  0
 26 14  1  0  0  0  0
M  END
