4,5
 OpenBabel05122313053D

 39 38  0  0  0  0  0  0  0  0999 V2000
   -0.5104   -1.3314    0.6568 P   0  0  0  0  0  4  0  0  0  0  0  0
    2.4999   -1.6561    0.0312 Si  0  0  0  0  0  0  0  0  0  0  0  0
   -3.1661    0.2558    0.3937 Si  0  0  0  0  0  0  0  0  0  0  0  0
    0.8914   -0.8502   -0.0237 N   0  0  0  0  0  2  0  0  0  0  0  0
   -1.4460   -0.1361    0.0914 N   0  0  0  0  0  2  0  0  0  0  0  0
   -0.9985   -2.8328    0.2797 O   0  0  0  0  0  0  0  0  0  0  0  0
   -1.1594   -3.1564   -1.1120 C   0  0  0  0  0  0  0  0  0  0  0  0
   -1.8747   -3.9980   -1.1622 H   0  0  0  0  0  0  0  0  0  0  0  0
   -0.1889   -3.4694   -1.5493 H   0  0  0  0  0  0  0  0  0  0  0  0
   -1.5526   -2.2950   -1.6901 H   0  0  0  0  0  0  0  0  0  0  0  0
   -0.5156   -1.5433    2.2595 O   0  0  0  0  0  0  0  0  0  0  0  0
   -0.0283   -0.4608    3.0825 C   0  0  0  0  0  0  0  0  0  0  0  0
   -0.4055   -0.6522    4.1034 H   0  0  0  0  0  0  0  0  0  0  0  0
   -0.3970    0.5204    2.7242 H   0  0  0  0  0  0  0  0  0  0  0  0
    1.0775   -0.4319    3.0848 H   0  0  0  0  0  0  0  0  0  0  0  0
    2.2738   -3.2104    1.0867 C   0  0  0  0  0  0  0  0  0  0  0  0
    1.9649   -2.9591    2.1214 H   0  0  0  0  0  0  0  0  0  0  0  0
    3.2333   -3.7650    1.1423 H   0  0  0  0  0  0  0  0  0  0  0  0
    1.5063   -3.8909    0.6674 H   0  0  0  0  0  0  0  0  0  0  0  0
    3.7634   -0.5254    0.8404 C   0  0  0  0  0  0  0  0  0  0  0  0
    3.9991    0.3356    0.1866 H   0  0  0  0  0  0  0  0  0  0  0  0
    4.6992   -1.0878    1.0400 H   0  0  0  0  0  0  0  0  0  0  0  0
    3.3797   -0.1235    1.7996 H   0  0  0  0  0  0  0  0  0  0  0  0
    2.9692   -2.1308   -1.7289 C   0  0  0  0  0  0  0  0  0  0  0  0
    3.0346   -1.2279   -2.3670 H   0  0  0  0  0  0  0  0  0  0  0  0
    2.2129   -2.8111   -2.1709 H   0  0  0  0  0  0  0  0  0  0  0  0
    3.9505   -2.6481   -1.7490 H   0  0  0  0  0  0  0  0  0  0  0  0
   -4.0488   -1.3803    0.7302 C   0  0  0  0  0  0  0  0  0  0  0  0
   -4.0224   -2.0425   -0.1588 H   0  0  0  0  0  0  0  0  0  0  0  0
   -5.1128   -1.1991    0.9877 H   0  0  0  0  0  0  0  0  0  0  0  0
   -3.5786   -1.9227    1.5756 H   0  0  0  0  0  0  0  0  0  0  0  0
   -3.2617    1.3795    1.9031 C   0  0  0  0  0  0  0  0  0  0  0  0
   -2.6120    2.2654    1.7575 H   0  0  0  0  0  0  0  0  0  0  0  0
   -2.9314    0.8480    2.8185 H   0  0  0  0  0  0  0  0  0  0  0  0
   -4.3010    1.7313    2.0683 H   0  0  0  0  0  0  0  0  0  0  0  0
   -3.8425    1.0938   -1.1453 C   0  0  0  0  0  0  0  0  0  0  0  0
   -3.3306    2.0610   -1.3180 H   0  0  0  0  0  0  0  0  0  0  0  0
   -4.9298    1.2856   -1.0374 H   0  0  0  0  0  0  0  0  0  0  0  0
   -3.6821    0.4616   -2.0412 H   0  0  0  0  0  0  0  0  0  0  0  0
  1 11  1  0  0  0  0
  2 20  1  0  0  0  0
  2 16  1  0  0  0  0
  3 28  1  0  0  0  0
  3 32  1  0  0  0  0
  4  2  1  0  0  0  0
  4  1  1  0  0  0  0
  5  3  1  0  0  0  0
  5  1  1  0  0  0  0
  6  1  1  0  0  0  0
  7  6  1  0  0  0  0
  8  7  1  0  0  0  0
  9  7  1  0  0  0  0
 10  7  1  0  0  0  0
 11 12  1  0  0  0  0
 12 15  1  0  0  0  0
 12 13  1  0  0  0  0
 14 12  1  0  0  0  0
 16 18  1  0  0  0  0
 16 17  1  0  0  0  0
 19 16  1  0  0  0  0
 20 22  1  0  0  0  0
 20 23  1  0  0  0  0
 21 20  1  0  0  0  0
 24  2  1  0  0  0  0
 25 24  1  0  0  0  0
 26 24  1  0  0  0  0
 27 24  1  0  0  0  0
 28 30  1  0  0  0  0
 28 31  1  0  0  0  0
 29 28  1  0  0  0  0
 32 35  1  0  0  0  0
 32 34  1  0  0  0  0
 33 32  1  0  0  0  0
 36 38  1  0  0  0  0
 36  3  1  0  0  0  0
 37 36  1  0  0  0  0
 39 36  1  0  0  0  0
M  END
