1,2
 OpenBabel05122313053D

 32 33  0  0  1  0  0  0  0  0999 V2000
   -2.0949    0.9403    0.0080 N   0  0  0  0  0  2  0  0  0  0  0  0
    0.3747   -0.1169   -0.3896 N   0  0  0  0  0  0  0  0  0  0  0  0
    0.3608    0.0980   -1.3979 H   0  0  0  0  0  0  0  0  0  0  0  0
   -3.3313    1.4143   -0.2116 C   0  0  0  0  0  3  0  0  0  0  0  0
   -4.1150    0.6554   -0.3703 H   0  0  0  0  0  0  0  0  0  0  0  0
   -3.5978    2.7884   -0.2526 C   0  0  0  0  0  0  0  0  0  0  0  0
   -4.6210    3.1484   -0.4308 H   0  0  0  0  0  0  0  0  0  0  0  0
   -2.5297    3.6804   -0.0725 C   0  0  0  0  0  0  0  0  0  0  0  0
   -2.6999    4.7672   -0.1037 H   0  0  0  0  0  0  0  0  0  0  0  0
   -1.2374    3.1748    0.1306 C   0  0  0  0  0  0  0  0  0  0  0  0
   -0.3754    3.8468    0.2541 H   0  0  0  0  0  0  0  0  0  0  0  0
   -1.0523    1.7841    0.1678 C   0  0  0  0  0  0  0  0  0  0  0  0
    0.2875    1.1207    0.4003 C   0  0  0  0  0  0  0  0  0  0  0  0
    1.1207    1.8303    0.2076 H   0  0  0  0  0  0  0  0  0  0  0  0
    0.3346    0.8067    1.4690 H   0  0  0  0  0  0  0  0  0  0  0  0
    1.5297   -0.9972   -0.0714 C   0  0  1  0  0  0  0  0  0  0  0  0
    1.3404   -1.3420    0.9685 H   0  0  0  0  0  0  0  0  0  0  0  0
    1.4890   -2.2091   -1.0045 C   0  0  0  0  0  0  0  0  0  0  0  0
    0.4989   -2.7074   -0.9622 H   0  0  0  0  0  0  0  0  0  0  0  0
    2.2716   -2.9371   -0.7187 H   0  0  0  0  0  0  0  0  0  0  0  0
    1.6724   -1.9136   -2.0589 H   0  0  0  0  0  0  0  0  0  0  0  0
    2.8611   -0.2616   -0.1103 C   0  0  0  0  0  0  0  0  0  0  0  0
    3.3044    0.3794   -1.2857 C   0  0  0  0  0  0  0  0  0  0  0  0
    2.6877    0.3405   -2.1990 H   0  0  0  0  0  0  0  0  0  0  0  0
    4.5263    1.0666   -1.3117 C   0  0  0  0  0  0  0  0  0  0  0  0
    4.8578    1.5610   -2.2377 H   0  0  0  0  0  0  0  0  0  0  0  0
    5.3292    1.1185   -0.1599 C   0  0  0  0  0  0  0  0  0  0  0  0
    6.2899    1.6550   -0.1799 H   0  0  0  0  0  0  0  0  0  0  0  0
    4.8994    0.4834    1.0150 C   0  0  0  0  0  0  0  0  0  0  0  0
    5.5219    0.5204    1.9220 H   0  0  0  0  0  0  0  0  0  0  0  0
    3.6718   -0.1976    1.0381 C   0  0  0  0  0  0  0  0  0  0  0  0
    3.3301   -0.6900    1.9627 H   0  0  0  0  0  0  0  0  0  0  0  0
  1 12  1  0  0  0  0
  2 16  1  0  0  0  0
  2 13  1  0  0  0  0
  3  2  1  0  0  0  0
  4  1  1  0  0  0  0
  5  4  1  0  0  0  0
  6  4  1  0  0  0  0
  6  8  2  0  0  0  0
  7  6  1  0  0  0  0
  8 10  1  0  0  0  0
  9  8  1  0  0  0  0
 10 12  2  0  0  0  0
 10 11  1  0  0  0  0
 12 13  1  0  0  0  0
 13 15  1  0  0  0  0
 14 13  1  0  0  0  0
 16 17  1  1  0  0  0
 18 19  1  0  0  0  0
 18 20  1  0  0  0  0
 18 16  1  0  0  0  0
 21 18  1  0  0  0  0
 22 16  1  0  0  0  0
 22 31  1  0  0  0  0
 23 22  2  0  0  0  0
 24 23  1  0  0  0  0
 25 23  1  0  0  0  0
 25 27  2  0  0  0  0
 26 25  1  0  0  0  0
 27 29  1  0  0  0  0
 28 27  1  0  0  0  0
 29 31  2  0  0  0  0
 29 30  1  0  0  0  0
 31 32  1  0  0  0  0
M  END
