1,2
 OpenBabel05122313053D

 56 60  0  0  0  0  0  0  0  0999 V2000
    0.3019    1.4258   -0.1659 N   0  0  0  0  0  2  0  0  0  0  0  0
    0.3019   -1.4259   -0.1658 N   0  0  0  0  0  2  0  0  0  0  0  0
   -1.0380    1.2970   -0.1534 C   0  0  0  0  0  0  0  0  0  0  0  0
   -1.8668    2.4911   -0.1818 C   0  0  0  0  0  0  0  0  0  0  0  0
   -1.3738    3.4686   -0.2141 H   0  0  0  0  0  0  0  0  0  0  0  0
   -3.2305    2.4599   -0.1054 C   0  0  0  0  0  0  0  0  0  0  0  0
   -3.8048    3.3999   -0.0904 H   0  0  0  0  0  0  0  0  0  0  0  0
   -3.9357    1.2211   -0.0337 C   0  0  0  0  0  0  0  0  0  0  0  0
   -5.3462    1.2024    0.0392 C   0  0  0  0  0  0  0  0  0  0  0  0
   -5.8788    2.1664    0.0553 H   0  0  0  0  0  0  0  0  0  0  0  0
   -6.0588   -0.0001    0.0831 C   0  0  0  0  0  0  0  0  0  0  0  0
   -7.1570   -0.0001    0.1408 H   0  0  0  0  0  0  0  0  0  0  0  0
   -5.3461   -1.2026    0.0393 C   0  0  0  0  0  0  0  0  0  0  0  0
   -5.8788   -2.1665    0.0554 H   0  0  0  0  0  0  0  0  0  0  0  0
   -3.9357   -1.2212   -0.0336 C   0  0  0  0  0  0  0  0  0  0  0  0
   -3.2304   -2.4600   -0.1053 C   0  0  0  0  0  3  0  0  0  0  0  0
   -3.8047   -3.4001   -0.0902 H   0  0  0  0  0  0  0  0  0  0  0  0
   -1.8667   -2.4912   -0.1817 C   0  0  0  0  0  0  0  0  0  0  0  0
   -1.3737   -3.4687   -0.2139 H   0  0  0  0  0  0  0  0  0  0  0  0
   -1.0380   -1.2971   -0.1533 C   0  0  0  0  0  0  0  0  0  0  0  0
   -1.7262   -0.0000   -0.0997 C   0  0  0  0  0  0  0  0  0  0  0  0
   -3.1714   -0.0001   -0.0511 C   0  0  0  0  0  0  0  0  0  0  0  0
    0.9364    2.7305   -0.3587 C   0  0  0  0  0  0  0  0  0  0  0  0
    0.2884    3.3909   -0.9784 H   0  0  0  0  0  0  0  0  0  0  0  0
    1.1991    3.4380    0.9857 C   0  0  0  0  0  0  0  0  0  0  0  0
    0.2404    3.5714    1.5293 H   0  0  0  0  0  0  0  0  0  0  0  0
    1.8206    2.7569    1.6085 H   0  0  0  0  0  0  0  0  0  0  0  0
    1.9163    4.7800    0.7973 C   0  0  0  0  0  0  0  0  0  0  0  0
    2.1226    5.2438    1.7846 H   0  0  0  0  0  0  0  0  0  0  0  0
    1.2413    5.4836    0.2589 H   0  0  0  0  0  0  0  0  0  0  0  0
    3.2141    4.6169   -0.0043 C   0  0  0  0  0  0  0  0  0  0  0  0
    3.6982    5.6030   -0.1641 H   0  0  0  0  0  0  0  0  0  0  0  0
    3.9322    4.0051    0.5868 H   0  0  0  0  0  0  0  0  0  0  0  0
    2.9528    3.9225   -1.3473 C   0  0  0  0  0  0  0  0  0  0  0  0
    3.9024    3.7768   -1.9032 H   0  0  0  0  0  0  0  0  0  0  0  0
    2.3178    4.5802   -1.9833 H   0  0  0  0  0  0  0  0  0  0  0  0
    2.2488    2.5747   -1.1495 C   0  0  0  0  0  0  0  0  0  0  0  0
    2.0297    2.0873   -2.1228 H   0  0  0  0  0  0  0  0  0  0  0  0
    2.9242    1.8890   -0.5906 H   0  0  0  0  0  0  0  0  0  0  0  0
    0.9365   -2.7305   -0.3586 C   0  0  0  0  0  0  0  0  0  0  0  0
    0.2885   -3.3910   -0.9781 H   0  0  0  0  0  0  0  0  0  0  0  0
    1.1994   -3.4379    0.9858 C   0  0  0  0  0  0  0  0  0  0  0  0
    1.8209   -2.7568    1.6085 H   0  0  0  0  0  0  0  0  0  0  0  0
    0.2407   -3.5714    1.5295 H   0  0  0  0  0  0  0  0  0  0  0  0
    1.9167   -4.7799    0.7974 C   0  0  0  0  0  0  0  0  0  0  0  0
    1.2416   -5.4836    0.2591 H   0  0  0  0  0  0  0  0  0  0  0  0
    2.1231   -5.2436    1.7847 H   0  0  0  0  0  0  0  0  0  0  0  0
    3.2143   -4.6167   -0.0044 C   0  0  0  0  0  0  0  0  0  0  0  0
    3.9325   -4.0050    0.5866 H   0  0  0  0  0  0  0  0  0  0  0  0
    3.6984   -5.6029   -0.1642 H   0  0  0  0  0  0  0  0  0  0  0  0
    2.9529   -3.9224   -1.3474 C   0  0  0  0  0  0  0  0  0  0  0  0
    2.3179   -4.5803   -1.9833 H   0  0  0  0  0  0  0  0  0  0  0  0
    3.9024   -3.7767   -1.9034 H   0  0  0  0  0  0  0  0  0  0  0  0
    2.2488   -2.5747   -1.1496 C   0  0  0  0  0  0  0  0  0  0  0  0
    2.0295   -2.0873   -2.1228 H   0  0  0  0  0  0  0  0  0  0  0  0
    2.9241   -1.8889   -0.5908 H   0  0  0  0  0  0  0  0  0  0  0  0
  1  3  1  0  0  0  0
  2 20  1  0  0  0  0
  3 21  1  0  0  0  0
  4  3  2  0  0  0  0
  4  6  1  0  0  0  0
  5  4  1  0  0  0  0
  6  7  1  0  0  0  0
  6  8  2  0  0  0  0
  8  9  1  0  0  0  0
  9 10  1  0  0  0  0
  9 11  2  0  0  0  0
 11 12  1  0  0  0  0
 13 14  1  0  0  0  0
 13 11  1  0  0  0  0
 15 13  2  0  0  0  0
 16 17  1  0  0  0  0
 16 15  1  0  0  0  0
 18 20  2  0  0  0  0
 18 16  1  0  0  0  0
 19 18  1  0  0  0  0
 20 21  1  0  0  0  0
 21 22  2  0  0  0  0
 22  8  1  0  0  0  0
 22 15  1  0  0  0  0
 23  1  1  0  0  0  0
 23 25  1  0  0  0  0
 24 23  1  0  0  0  0
 25 26  1  0  0  0  0
 25 27  1  0  0  0  0
 28 25  1  0  0  0  0
 28 29  1  0  0  0  0
 30 28  1  0  0  0  0
 31 33  1  0  0  0  0
 31 28  1  0  0  0  0
 32 31  1  0  0  0  0
 34 37  1  0  0  0  0
 34 31  1  0  0  0  0
 35 34  1  0  0  0  0
 36 34  1  0  0  0  0
 37 39  1  0  0  0  0
 37 23  1  0  0  0  0
 38 37  1  0  0  0  0
 40  2  1  0  0  0  0
 40 42  1  0  0  0  0
 41 40  1  0  0  0  0
 42 44  1  0  0  0  0
 42 43  1  0  0  0  0
 45 42  1  0  0  0  0
 45 47  1  0  0  0  0
 46 45  1  0  0  0  0
 48 49  1  0  0  0  0
 48 45  1  0  0  0  0
 50 48  1  0  0  0  0
 51 54  1  0  0  0  0
 51 48  1  0  0  0  0
 52 51  1  0  0  0  0
 53 51  1  0  0  0  0
 54 56  1  0  0  0  0
 54 40  1  0  0  0  0
 55 54  1  0  0  0  0
M  END
