1,2
 OpenBabel05122313053D

 41 44  0  0  1  0  0  0  0  0999 V2000
   -0.2145    0.0667    0.3042 N   0  0  0  0  0  2  0  0  0  0  0  0
    1.2082   -2.2035    0.2988 N   0  0  0  0  0  2  0  0  0  0  0  0
   -0.1467   -2.3457    0.3449 C   0  0  1  0  0  3  0  0  0  0  0  0
   -0.7314   -3.6151    0.5233 C   0  0  0  0  0  0  0  0  0  0  0  0
   -1.8230   -3.7136    0.5800 H   0  0  0  0  0  0  0  0  0  0  0  0
   -4.5168    0.1432   -0.1223 C   0  0  0  0  0  0  0  0  0  0  0  0
   -3.0504    0.0917    0.0727 C   0  0  0  0  0  0  0  0  0  0  0  0
   -0.8976    1.2431    0.3127 C   0  0  1  0  0  3  0  0  0  0  0  0
   -2.2956    1.2772    0.1823 C   0  0  0  0  0  0  0  0  0  0  0  0
   -2.7927    2.2558    0.2131 H   0  0  0  0  0  0  0  0  0  0  0  0
   -0.1619    2.5186    0.4960 C   0  0  0  0  0  0  0  0  0  0  0  0
   -4.8814   -1.8474    1.1671 O   0  0  0  0  0  0  0  0  0  0  0  0
   -5.6208   -2.3795    1.5162 H   0  0  0  0  0  0  0  0  0  0  0  0
   -2.3270   -1.1134    0.1460 C   0  0  0  0  0  0  0  0  0  0  0  0
   -2.8582   -2.0673    0.0827 H   0  0  0  0  0  0  0  0  0  0  0  0
   -0.9303   -1.0974    0.2546 C   0  0  0  0  0  0  0  0  0  0  0  0
   -5.4024   -0.8242    0.4313 C   0  0  0  0  0  0  0  0  0  0  0  0
    1.3573    3.9160    1.7916 C   0  0  0  0  0  0  0  0  0  0  0  0
    2.0216    4.0433    2.6593 H   0  0  0  0  0  0  0  0  0  0  0  0
    1.9956   -3.2946    0.4237 C   0  0  0  0  0  0  0  0  0  0  0  0
    3.0785   -3.1138    0.3695 H   0  0  0  0  0  0  0  0  0  0  0  0
    0.6857    2.7010    1.6094 C   0  0  0  0  0  0  0  0  0  0  0  0
    0.8150    1.8859    2.3344 H   0  0  0  0  0  0  0  0  0  0  0  0
    1.1904    4.9601    0.8675 C   0  0  0  0  0  0  0  0  0  0  0  0
    1.7309    5.9088    1.0045 H   0  0  0  0  0  0  0  0  0  0  0  0
    1.4778   -4.5791    0.5949 C   0  0  0  0  0  0  0  0  0  0  0  0
    2.1622   -5.4338    0.6855 H   0  0  0  0  0  0  0  0  0  0  0  0
   -5.0876    1.1976   -0.8719 C   0  0  0  0  0  0  0  0  0  0  0  0
   -4.4132    1.9356   -1.3306 H   0  0  0  0  0  0  0  0  0  0  0  0
   -0.3428    3.5787   -0.4157 C   0  0  0  0  0  0  0  0  0  0  0  0
   -0.9883    3.4319   -1.2949 H   0  0  0  0  0  0  0  0  0  0  0  0
   -6.4672    1.3077   -1.0759 C   0  0  0  0  0  0  0  0  0  0  0  0
   -6.8716    2.1344   -1.6771 H   0  0  0  0  0  0  0  0  0  0  0  0
   -6.7914   -0.7082    0.2335 C   0  0  0  0  0  0  0  0  0  0  0  0
   -7.4584   -1.4652    0.6789 H   0  0  0  0  0  0  0  0  0  0  0  0
   -7.3239    0.3483   -0.5141 C   0  0  0  0  0  0  0  0  0  0  0  0
   -8.4122    0.4159   -0.6608 H   0  0  0  0  0  0  0  0  0  0  0  0
    0.0839   -4.7423    0.6440 C   0  0  0  0  0  0  0  0  0  0  0  0
   -0.3621   -5.7382    0.7806 H   0  0  0  0  0  0  0  0  0  0  0  0
    0.3375    4.7904   -0.2339 C   0  0  0  0  0  0  0  0  0  0  0  0
    0.2130    5.6016   -0.9666 H   0  0  0  0  0  0  0  0  0  0  0  0
  1  8  1  0  0  0  0
  2  3  1  0  0  0  0
  2 20  1  0  0  0  0
  3 16  1  1  0  0  0
  3  4  1  0  0  0  0
  4  5  1  0  0  0  0
  4 38  2  0  0  0  0
  6  7  1  0  0  0  0
  6 17  1  0  0  0  0
  7 14  1  0  0  0  0
  7  9  2  0  0  0  0
  8 11  1  1  0  0  0
  9 10  1  0  0  0  0
  9  8  1  0  0  0  0
 11 22  1  0  0  0  0
 12 13  1  0  0  0  0
 14 16  2  0  0  0  0
 15 14  1  0  0  0  0
 16  1  1  0  0  0  0
 17 12  1  0  0  0  0
 18 19  1  0  0  0  0
 20 26  2  0  0  0  0
 21 20  1  0  0  0  0
 22 18  2  0  0  0  0
 22 23  1  0  0  0  0
 24 25  1  0  0  0  0
 24 18  1  0  0  0  0
 26 38  1  0  0  0  0
 26 27  1  0  0  0  0
 28  6  2  0  0  0  0
 29 28  1  0  0  0  0
 30 40  1  0  0  0  0
 30 11  2  0  0  0  0
 31 30  1  0  0  0  0
 32 28  1  0  0  0  0
 32 36  2  0  0  0  0
 33 32  1  0  0  0  0
 34 17  2  0  0  0  0
 34 35  1  0  0  0  0
 36 34  1  0  0  0  0
 37 36  1  0  0  0  0
 38 39  1  0  0  0  0
 40 24  2  0  0  0  0
 41 40  1  0  0  0  0
M  END
