3,19
 OpenBabel05122313053D

 32 33  0  0  0  0  0  0  0  0999 V2000
    5.1695   -1.0534    0.9732 Cl  0  0  0  0  0  0  0  0  0  0  0  0
    2.6253    0.0926    0.0483 N   0  0  0  0  0  0  0  0  0  0  0  0
    1.3127    0.3105    0.1168 N   0  0  0  0  0  2  0  0  0  0  0  0
    3.6698    1.0124   -0.0103 C   0  0  0  0  0  0  0  0  0  0  0  0
    3.5403    2.3316   -0.5063 C   0  0  0  0  0  0  0  0  0  0  0  0
    0.7148    1.4483    0.4536 C   0  0  0  0  0  0  0  0  0  0  0  0
    5.9166    2.7378   -0.1690 C   0  0  0  0  0  0  0  0  0  0  0  0
    4.9651    0.5739    0.3866 C   0  0  0  0  0  0  0  0  0  0  0  0
    6.0719    1.4269    0.3049 C   0  0  0  0  0  0  0  0  0  0  0  0
    4.6501    3.1812   -0.5799 C   0  0  0  0  0  0  0  0  0  0  0  0
    2.8156   -0.9302   -0.0743 H   0  0  0  0  0  0  0  0  0  0  0  0
    7.0531    1.0489    0.6244 H   0  0  0  0  0  0  0  0  0  0  0  0
    6.7880    3.4063   -0.2207 H   0  0  0  0  0  0  0  0  0  0  0  0
    4.5213    4.1992   -0.9760 H   0  0  0  0  0  0  0  0  0  0  0  0
    2.5676    2.6784   -0.8777 H   0  0  0  0  0  0  0  0  0  0  0  0
    1.2841    2.3394    0.7525 H   0  0  0  0  0  0  0  0  0  0  0  0
   -5.1695   -1.0535    0.9732 Cl  0  0  0  0  0  0  0  0  0  0  0  0
   -2.6253    0.0925    0.0482 N   0  0  0  0  0  0  0  0  0  0  0  0
   -1.3127    0.3104    0.1168 N   0  0  0  0  0  2  0  0  0  0  0  0
   -3.6699    1.0123   -0.0103 C   0  0  0  0  0  0  0  0  0  0  0  0
   -3.5403    2.3316   -0.5063 C   0  0  0  0  0  0  0  0  0  0  0  0
   -0.7149    1.4482    0.4535 C   0  0  0  0  0  0  0  0  0  0  0  0
   -5.9166    2.7378   -0.1689 C   0  0  0  0  0  0  0  0  0  0  0  0
   -4.9652    0.5739    0.3866 C   0  0  0  0  0  0  0  0  0  0  0  0
   -6.0719    1.4269    0.3049 C   0  0  0  0  0  0  0  0  0  0  0  0
   -4.6501    3.1812   -0.5798 C   0  0  0  0  0  0  0  0  0  0  0  0
   -2.8157   -0.9303   -0.0743 H   0  0  0  0  0  0  0  0  0  0  0  0
   -7.0532    1.0490    0.6244 H   0  0  0  0  0  0  0  0  0  0  0  0
   -6.7880    3.4064   -0.2206 H   0  0  0  0  0  0  0  0  0  0  0  0
   -4.5213    4.1992   -0.9759 H   0  0  0  0  0  0  0  0  0  0  0  0
   -2.5676    2.6784   -0.8777 H   0  0  0  0  0  0  0  0  0  0  0  0
   -1.2842    2.3394    0.7524 H   0  0  0  0  0  0  0  0  0  0  0  0
  2  3  1  0  0  0  0
  3  6  1  0  0  0  0
  4  2  1  0  0  0  0
  4  8  1  0  0  0  0
  5  4  2  0  0  0  0
  6 16  1  0  0  0  0
  7  9  1  0  0  0  0
  8  1  1  0  0  0  0
  9  8  2  0  0  0  0
  9 12  1  0  0  0  0
 10  5  1  0  0  0  0
 10  7  2  0  0  0  0
 11  2  1  0  0  0  0
 13  7  1  0  0  0  0
 14 10  1  0  0  0  0
 15  5  1  0  0  0  0
 18 19  1  0  0  0  0
 19 22  1  0  0  0  0
 20 18  1  0  0  0  0
 20 24  1  0  0  0  0
 21 20  2  0  0  0  0
 22  6  2  0  0  0  0
 22 32  1  0  0  0  0
 23 25  1  0  0  0  0
 24 17  1  0  0  0  0
 25 24  2  0  0  0  0
 25 28  1  0  0  0  0
 26 21  1  0  0  0  0
 26 23  2  0  0  0  0
 27 18  1  0  0  0  0
 29 23  1  0  0  0  0
 30 26  1  0  0  0  0
 31 21  1  0  0  0  0
M  END
