2,4
 OpenBabel05122313053D

 46 48  0  0  1  0  0  0  0  0999 V2000
   -0.0730    1.1263   -0.3206 P   0  0  0  0  0  0  0  0  0  0  0  0
    0.3796   -1.5591   -0.9949 N   0  0  0  0  0  2  0  0  0  0  0  0
   -0.9692   -1.3649   -0.9009 N   0  0  0  0  0  0  0  0  0  0  0  0
    0.3117   -0.8248    1.6416 N   0  0  0  0  0  2  0  0  0  0  0  0
   -1.0267   -0.7544    1.3787 N   0  0  0  0  0  0  0  0  0  0  0  0
   -2.7912   -0.0327   -0.0833 N   0  0  0  0  0  0  0  0  0  0  0  0
   -1.6605   -2.2678   -1.6640 C   0  0  0  0  0  3  0  0  0  0  0  0
   -2.7536   -2.2842   -1.6626 H   0  0  0  0  0  0  0  0  0  0  0  0
   -1.3906   -0.3076    0.0267 C   0  0  1  0  0  0  0  0  0  0  0  0
   -3.4190    1.1732   -0.3234 C   0  0  0  0  0  0  0  0  0  0  0  0
   -2.8625    2.0987   -0.4897 H   0  0  0  0  0  0  0  0  0  0  0  0
   -0.7068   -3.0585   -2.2972 C   0  0  0  0  0  0  0  0  0  0  0  0
   -0.8969   -3.8860   -2.9877 H   0  0  0  0  0  0  0  0  0  0  0  0
   -1.7712   -1.1738    2.4469 C   0  0  0  0  0  3  0  0  0  0  0  0
   -2.8622   -1.2192    2.3901 H   0  0  0  0  0  0  0  0  0  0  0  0
    0.4166   -1.2753    2.9058 C   0  0  0  0  0  0  0  0  0  0  0  0
    1.4051   -1.4211    3.3534 H   0  0  0  0  0  0  0  0  0  0  0  0
    0.5465   -2.5859   -1.8485 C   0  0  0  0  0  0  0  0  0  0  0  0
    1.5544   -2.9357   -2.0933 H   0  0  0  0  0  0  0  0  0  0  0  0
   -3.6873   -1.0430    0.1161 N   0  0  0  0  0  0  0  0  0  0  0  0
   -0.8671   -1.5035    3.4516 C   0  0  0  0  0  0  0  0  0  0  0  0
   -1.1072   -1.8764    4.4521 H   0  0  0  0  0  0  0  0  0  0  0  0
   -0.4262    1.7770   -2.0514 C   0  0  0  0  0  0  0  0  0  0  0  0
   -1.4874    2.1062   -2.0602 H   0  0  0  0  0  0  0  0  0  0  0  0
   -0.4751    2.5694    0.8296 C   0  0  0  0  0  0  0  0  0  0  0  0
   -1.1399    3.2384    0.2383 H   0  0  0  0  0  0  0  0  0  0  0  0
   -4.8850   -0.4678   -0.0100 C   0  0  0  0  0  0  0  0  0  0  0  0
   -5.7920   -1.0761    0.1014 H   0  0  0  0  0  0  0  0  0  0  0  0
   -1.1780    2.1888    2.1378 C   0  0  0  0  0  0  0  0  0  0  0  0
   -2.1656    1.7158    1.9867 H   0  0  0  0  0  0  0  0  0  0  0  0
   -1.3428    3.1114    2.7302 H   0  0  0  0  0  0  0  0  0  0  0  0
   -0.5529    1.5132    2.7542 H   0  0  0  0  0  0  0  0  0  0  0  0
   -0.2155    0.7162   -3.1364 C   0  0  0  0  0  0  0  0  0  0  0  0
    0.8048    0.2883   -3.0768 H   0  0  0  0  0  0  0  0  0  0  0  0
   -0.3301    1.1905   -4.1316 H   0  0  0  0  0  0  0  0  0  0  0  0
   -0.9446   -0.1129   -3.0815 H   0  0  0  0  0  0  0  0  0  0  0  0
   -4.7797    0.9238   -0.2852 C   0  0  0  0  0  0  0  0  0  0  0  0
   -5.5872    1.6473   -0.4366 H   0  0  0  0  0  0  0  0  0  0  0  0
    0.4683    3.0018   -2.3078 C   0  0  0  0  0  0  0  0  0  0  0  0
    0.2559    3.8493   -1.6291 H   0  0  0  0  0  0  0  0  0  0  0  0
    0.2966    3.3608   -3.3424 H   0  0  0  0  0  0  0  0  0  0  0  0
    1.5429    2.7403   -2.2242 H   0  0  0  0  0  0  0  0  0  0  0  0
    0.8346    3.3147    1.1371 C   0  0  0  0  0  0  0  0  0  0  0  0
    1.5125    2.6672    1.7269 H   0  0  0  0  0  0  0  0  0  0  0  0
    0.6087    4.2178    1.7392 H   0  0  0  0  0  0  0  0  0  0  0  0
    1.3762    3.6438    0.2309 H   0  0  0  0  0  0  0  0  0  0  0  0
  1 25  1  0  0  0  0
  2  3  1  0  0  0  0
  3  9  1  0  0  0  0
  4 16  1  0  0  0  0
  5  4  1  0  0  0  0
  5 14  1  0  0  0  0
  6  9  1  0  0  0  0
  6 20  1  0  0  0  0
  7  8  1  0  0  0  0
  7  3  1  0  0  0  0
  9  1  1  6  0  0  0
  9  5  1  0  0  0  0
 10 37  2  0  0  0  0
 10  6  1  0  0  0  0
 11 10  1  0  0  0  0
 12 18  2  0  0  0  0
 12  7  1  0  0  0  0
 13 12  1  0  0  0  0
 14 21  1  0  0  0  0
 15 14  1  0  0  0  0
 16 17  1  0  0  0  0
 16 21  2  0  0  0  0
 18  2  1  0  0  0  0
 19 18  1  0  0  0  0
 21 22  1  0  0  0  0
 23  1  1  0  0  0  0
 24 23  1  0  0  0  0
 25 43  1  0  0  0  0
 25 29  1  0  0  0  0
 26 25  1  0  0  0  0
 27 28  1  0  0  0  0
 27 20  2  0  0  0  0
 29 31  1  0  0  0  0
 29 32  1  0  0  0  0
 30 29  1  0  0  0  0
 33 36  1  0  0  0  0
 33 34  1  0  0  0  0
 33 23  1  0  0  0  0
 35 33  1  0  0  0  0
 37 27  1  0  0  0  0
 38 37  1  0  0  0  0
 39 42  1  0  0  0  0
 39 23  1  0  0  0  0
 39 40  1  0  0  0  0
 41 39  1  0  0  0  0
 43 44  1  0  0  0  0
 43 45  1  0  0  0  0
 46 43  1  0  0  0  0
M  END
