1,4
 OpenBabel05122313053D

 25 25  0  0  0  0  0  0  0  0999 V2000
   -0.6897   -2.0412    1.0330 N   0  0  0  0  0  0  0  0  0  0  0  0
   -1.4622   -2.6335    0.7002 H   0  0  0  0  0  0  0  0  0  0  0  0
    0.0565   -2.6649    1.3706 H   0  0  0  0  0  0  0  0  0  0  0  0
    0.0364    0.7884    0.9747 N   0  0  0  0  0  0  0  0  0  0  0  0
   -1.1484   -1.1133    2.0873 C   0  0  0  0  0  0  0  0  0  0  0  0
   -1.2797   -1.6131    3.0714 H   0  0  0  0  0  0  0  0  0  0  0  0
   -2.1448   -0.7313    1.7812 H   0  0  0  0  0  0  0  0  0  0  0  0
   -0.1403    0.0266    2.2320 C   0  0  0  0  0  0  0  0  0  0  0  0
    0.8502   -0.3954    2.5050 H   0  0  0  0  0  0  0  0  0  0  0  0
   -0.4446    0.7042    3.0627 H   0  0  0  0  0  0  0  0  0  0  0  0
   -1.0761    1.7600    0.7748 C   0  0  0  0  0  0  0  0  0  0  0  0
   -1.0914    2.4528    1.6520 H   0  0  0  0  0  0  0  0  0  0  0  0
   -2.0376    1.2090    0.7686 H   0  0  0  0  0  0  0  0  0  0  0  0
   -0.9149    2.5563   -0.5185 C   0  0  0  0  0  0  0  0  0  0  0  0
   -1.7570    3.2740   -0.5931 H   0  0  0  0  0  0  0  0  0  0  0  0
   -1.0199    1.8615   -1.3790 H   0  0  0  0  0  0  0  0  0  0  0  0
    0.4384    3.2704   -0.5741 C   0  0  0  0  0  0  0  0  0  0  0  0
    0.5718    3.7771   -1.5514 H   0  0  0  0  0  0  0  0  0  0  0  0
    0.4736    4.0663    0.2036 H   0  0  0  0  0  0  0  0  0  0  0  0
    1.5675    2.2661   -0.3272 C   0  0  0  0  0  0  0  0  0  0  0  0
    2.5573    2.7630   -0.2793 H   0  0  0  0  0  0  0  0  0  0  0  0
    1.6261    1.5389   -1.1662 H   0  0  0  0  0  0  0  0  0  0  0  0
    1.3489    1.4933    0.9697 C   0  0  0  0  0  0  0  0  0  0  0  0
    2.1502    0.7406    1.1118 H   0  0  0  0  0  0  0  0  0  0  0  0
    1.3811    2.1911    1.8418 H   0  0  0  0  0  0  0  0  0  0  0  0
  1  3  1  0  0  0  0
  1  5  1  0  0  0  0
  2  1  1  0  0  0  0
  4  8  1  0  0  0  0
  5  8  1  0  0  0  0
  5  6  1  0  0  0  0
  7  5  1  0  0  0  0
  8  9  1  0  0  0  0
  8 10  1  0  0  0  0
 11  4  1  0  0  0  0
 11 12  1  0  0  0  0
 13 11  1  0  0  0  0
 14 11  1  0  0  0  0
 15 14  1  0  0  0  0
 16 14  1  0  0  0  0
 17 14  1  0  0  0  0
 17 20  1  0  0  0  0
 17 19  1  0  0  0  0
 18 17  1  0  0  0  0
 20 21  1  0  0  0  0
 20 23  1  0  0  0  0
 22 20  1  0  0  0  0
 23  4  1  0  0  0  0
 23 24  1  0  0  0  0
 23 25  1  0  0  0  0
M  END
