1,2
 OpenBabel05122313053D

 34 35  0  0  0  0  0  0  0  0999 V2000
    1.9660   -0.9731   -0.2179 N   0  0  0  0  0  2  0  0  0  0  0  0
   -0.5193   -1.3939   -0.1280 N   0  0  0  0  0  2  0  0  0  0  0  0
    7.6009    0.3014   -0.1977 C   0  0  0  0  0  0  0  0  0  0  0  0
    6.1350   -0.0513   -0.2034 C   0  0  0  0  0  0  0  0  0  0  0  0
    5.2914    0.3391    0.8590 C   0  0  0  0  0  0  0  0  0  0  0  0
    3.9259    0.0417    0.8577 C   0  0  0  0  0  0  0  0  0  0  0  0
    3.3493   -0.6686   -0.2176 C   0  0  0  0  0  0  0  0  0  0  0  0
    4.1838   -1.0691   -1.2831 C   0  0  0  0  0  0  0  0  0  0  0  0
    5.5508   -0.7618   -1.2698 C   0  0  0  0  0  0  0  0  0  0  0  0
    1.5932   -2.2345   -0.5392 C   0  0  0  0  0  0  0  0  0  0  0  0
    0.2228   -2.4675   -0.4885 C   0  0  0  0  0  0  0  0  0  0  0  0
   -1.9206   -1.5565   -0.0281 C   0  0  0  0  0  0  0  0  0  0  0  0
   -2.6610   -2.1575   -1.0687 C   0  0  0  0  0  0  0  0  0  0  0  0
   -4.0510   -2.3059   -0.9617 C   0  0  0  0  0  0  0  0  0  0  0  0
   -4.7528   -1.8660    0.1778 C   0  0  0  0  0  0  0  0  0  0  0  0
   -6.2517   -1.9927    0.2807 C   0  0  0  0  0  0  0  0  0  0  0  0
   -4.0003   -1.2757    1.2173 C   0  0  0  0  0  0  0  0  0  0  0  0
   -2.6141   -1.1180    1.1217 C   0  0  0  0  0  0  0  0  0  0  0  0
    8.1520   -0.2275   -0.9994 H   0  0  0  0  0  0  0  0  0  0  0  0
    8.0771    0.0456    0.7712 H   0  0  0  0  0  0  0  0  0  0  0  0
    7.7534    1.3913   -0.3511 H   0  0  0  0  0  0  0  0  0  0  0  0
    5.7184    0.8860    1.7149 H   0  0  0  0  0  0  0  0  0  0  0  0
    3.2870    0.3365    1.7019 H   0  0  0  0  0  0  0  0  0  0  0  0
    3.7445   -1.5978   -2.1419 H   0  0  0  0  0  0  0  0  0  0  0  0
    6.1795   -1.0736   -2.1192 H   0  0  0  0  0  0  0  0  0  0  0  0
    2.3447   -3.0137   -0.7412 H   0  0  0  0  0  0  0  0  0  0  0  0
   -0.2430   -3.4536   -0.6428 H   0  0  0  0  0  0  0  0  0  0  0  0
   -2.1373   -2.4835   -1.9797 H   0  0  0  0  0  0  0  0  0  0  0  0
   -4.6072   -2.7680   -1.7930 H   0  0  0  0  0  0  0  0  0  0  0  0
   -6.5627   -2.3526    1.2825 H   0  0  0  0  0  0  0  0  0  0  0  0
   -6.6559   -2.6932   -0.4758 H   0  0  0  0  0  0  0  0  0  0  0  0
   -6.7506   -1.0119    0.1233 H   0  0  0  0  0  0  0  0  0  0  0  0
   -4.5153   -0.9406    2.1323 H   0  0  0  0  0  0  0  0  0  0  0  0
   -2.0415   -0.6682    1.9447 H   0  0  0  0  0  0  0  0  0  0  0  0
  1  7  1  0  0  0  0
  2 12  1  0  0  0  0
  3 20  1  0  0  0  0
  4  3  1  0  0  0  0
  4  5  1  0  0  0  0
  5 22  1  0  0  0  0
  6  5  2  0  0  0  0
  6 23  1  0  0  0  0
  7  6  1  0  0  0  0
  8  9  1  0  0  0  0
  8  7  2  0  0  0  0
  9  4  2  0  0  0  0
 10 11  2  0  0  0  0
 10  1  1  0  0  0  0
 11  2  1  0  0  0  0
 12 18  1  0  0  0  0
 13 14  1  0  0  0  0
 13 12  2  0  0  0  0
 14 15  2  0  0  0  0
 15 16  1  0  0  0  0
 15 17  1  0  0  0  0
 16 30  1  0  0  0  0
 17 33  1  0  0  0  0
 18 17  2  0  0  0  0
 18 34  1  0  0  0  0
 19  3  1  0  0  0  0
 21  3  1  0  0  0  0
 24  8  1  0  0  0  0
 25  9  1  0  0  0  0
 26 10  1  0  0  0  0
 27 11  1  0  0  0  0
 28 13  1  0  0  0  0
 29 14  1  0  0  0  0
 31 16  1  0  0  0  0
 32 16  1  0  0  0  0
M  END
