3,5
 OpenBabel05122313053D

 28 29  0  0  0  0  0  0  0  0999 V2000
    1.2509   -2.8914    0.1067 O   0  0  0  0  0  0  0  0  0  0  0  0
    0.1620   -2.9640    0.0689 H   0  0  0  0  0  0  0  0  0  0  0  0
    1.7028    0.8759    0.2181 N   0  0  0  0  0  2  0  0  0  0  0  0
    2.8251    0.2622    0.1710 N   0  0  0  0  0  0  0  0  0  0  0  0
    1.4994   -1.5987    0.1256 N   0  0  0  0  0  2  0  0  0  0  0  0
    1.7667    2.2879    0.3532 C   0  0  0  0  0  0  0  0  0  0  0  0
    0.8947    2.9141    1.2664 C   0  0  0  0  0  0  0  0  0  0  0  0
    0.2181    2.2886    1.8681 H   0  0  0  0  0  0  0  0  0  0  0  0
    0.9530    4.3039    1.4146 C   0  0  0  0  0  0  0  0  0  0  0  0
    0.2852    4.7984    2.1350 H   0  0  0  0  0  0  0  0  0  0  0  0
    1.8438    5.0638    0.6381 C   0  0  0  0  0  0  0  0  0  0  0  0
    1.8684    6.1589    0.7432 H   0  0  0  0  0  0  0  0  0  0  0  0
    2.7023    4.4289   -0.2770 C   0  0  0  0  0  0  0  0  0  0  0  0
    3.3942    5.0255   -0.8903 H   0  0  0  0  0  0  0  0  0  0  0  0
    2.6799    3.0363   -0.4152 C   0  0  0  0  0  0  0  0  0  0  0  0
    3.3340    2.5132   -1.1263 H   0  0  0  0  0  0  0  0  0  0  0  0
    2.7479   -1.1200    0.0909 C   0  0  0  0  0  0  0  0  0  0  0  0
    4.0114   -1.8691    0.0213 C   0  0  0  0  0  0  0  0  0  0  0  0
    5.2250   -1.1413    0.1266 C   0  0  0  0  0  0  0  0  0  0  0  0
    5.1784   -0.0533    0.2666 H   0  0  0  0  0  0  0  0  0  0  0  0
    6.4573   -1.7973    0.0558 C   0  0  0  0  0  0  0  0  0  0  0  0
    7.3873   -1.2155    0.1427 H   0  0  0  0  0  0  0  0  0  0  0  0
    6.5098   -3.1894   -0.1243 C   0  0  0  0  0  0  0  0  0  0  0  0
    7.4805   -3.7050   -0.1802 H   0  0  0  0  0  0  0  0  0  0  0  0
    5.3153   -3.9180   -0.2322 C   0  0  0  0  0  0  0  0  0  0  0  0
    5.3461   -5.0086   -0.3753 H   0  0  0  0  0  0  0  0  0  0  0  0
    4.0742   -3.2732   -0.1588 C   0  0  0  0  0  0  0  0  0  0  0  0
    3.1497   -3.8535   -0.2443 H   0  0  0  0  0  0  0  0  0  0  0  0
  1  5  1  0  0  0  0
  2  1  1  0  0  0  0
  3  6  1  0  0  0  0
  4  3  1  0  0  0  0
  6  7  1  0  0  0  0
  7  9  2  0  0  0  0
  7  8  1  0  0  0  0
  9 10  1  0  0  0  0
 11 12  1  0  0  0  0
 11  9  1  0  0  0  0
 13 11  2  0  0  0  0
 14 13  1  0  0  0  0
 15 13  1  0  0  0  0
 15  6  2  0  0  0  0
 16 15  1  0  0  0  0
 17  5  1  0  0  0  0
 17  4  2  0  0  0  0
 18 17  1  0  0  0  0
 18 19  1  0  0  0  0
 19 20  1  0  0  0  0
 21 19  2  0  0  0  0
 21 22  1  0  0  0  0
 23 21  1  0  0  0  0
 24 23  1  0  0  0  0
 25 27  1  0  0  0  0
 25 23  2  0  0  0  0
 26 25  1  0  0  0  0
 27 18  2  0  0  0  0
 28 27  1  0  0  0  0
M  END
