5,6
 OpenBabel05122313053D

 70 72  0  0  0  0  0  0  0  0999 V2000
    1.1085   -3.2126    0.5647 O   0  0  0  0  0  0  0  0  0  0  0  0
    0.9210   -1.1200    2.4316 O   0  0  0  0  0  0  0  0  0  0  0  0
   -1.6023    2.2863   -0.0915 O   0  0  0  0  0  0  0  0  0  0  0  0
   -0.9574    1.0367   -2.4834 O   0  0  0  0  0  0  0  0  0  0  0  0
    0.8727    1.8097    1.3201 N   0  0  0  0  0  0  0  0  0  0  0  0
   -0.7176   -1.7642   -1.3022 N   0  0  0  0  0  0  0  0  0  0  0  0
   -0.2206    2.6742    1.8287 C   0  0  0  0  0  0  0  0  0  0  0  0
   -1.1061    3.2980    0.7588 C   0  0  0  0  0  0  0  0  0  0  0  0
   -2.1274    2.7478   -1.3267 C   0  0  0  0  0  0  0  0  0  0  0  0
   -2.2616    1.5622   -2.2565 C   0  0  0  0  0  0  0  0  0  0  0  0
   -0.9041   -0.1511   -3.2592 C   0  0  0  0  0  0  0  0  0  0  0  0
   -1.4492   -1.3772   -2.5332 C   0  0  0  0  0  0  0  0  0  0  0  0
    0.4995   -2.5400   -1.6554 C   0  0  0  0  0  0  0  0  0  0  0  0
    1.5793   -2.5452   -0.5869 C   0  0  0  0  0  0  0  0  0  0  0  0
    1.9512   -3.1594    1.6998 C   0  0  0  0  0  0  0  0  0  0  0  0
    2.1808   -1.7529    2.2428 C   0  0  0  0  0  0  0  0  0  0  0  0
    0.9600    0.0755    3.1907 C   0  0  0  0  0  0  0  0  0  0  0  0
    1.6213    1.2470    2.4694 C   0  0  0  0  0  0  0  0  0  0  0  0
    1.8177    2.5670    0.4411 C   0  0  0  0  0  0  0  0  0  0  0  0
    2.7028    1.6614   -0.3850 C   0  0  0  0  0  0  0  0  0  0  0  0
    3.9750    1.2528    0.0636 C   0  0  0  0  0  0  0  0  0  0  0  0
    4.7513    0.3599   -0.6935 C   0  0  0  0  0  0  0  0  0  0  0  0
    4.2746   -0.1170   -1.9246 C   0  0  0  0  0  0  0  0  0  0  0  0
    3.0254    0.3137   -2.4000 C   0  0  0  0  0  0  0  0  0  0  0  0
    2.2405    1.1908   -1.6344 C   0  0  0  0  0  0  0  0  0  0  0  0
   -1.6410   -2.5670   -0.4231 C   0  0  0  0  0  0  0  0  0  0  0  0
   -2.6199   -1.6828    0.3131 C   0  0  0  0  0  0  0  0  0  0  0  0
   -3.9019   -1.3938   -0.1955 C   0  0  0  0  0  0  0  0  0  0  0  0
   -4.7517   -0.4928    0.4680 C   0  0  0  0  0  0  0  0  0  0  0  0
   -4.3347    0.1200    1.6597 C   0  0  0  0  0  0  0  0  0  0  0  0
   -3.0768   -0.1930    2.1991 C   0  0  0  0  0  0  0  0  0  0  0  0
   -2.2234   -1.0876    1.5331 C   0  0  0  0  0  0  0  0  0  0  0  0
    0.1966    3.5002    2.4544 H   0  0  0  0  0  0  0  0  0  0  0  0
   -0.8510    2.0491    2.4913 H   0  0  0  0  0  0  0  0  0  0  0  0
   -0.5460    4.0583    0.1638 H   0  0  0  0  0  0  0  0  0  0  0  0
   -1.9339    3.8455    1.2691 H   0  0  0  0  0  0  0  0  0  0  0  0
   -1.4391    3.5026   -1.7763 H   0  0  0  0  0  0  0  0  0  0  0  0
   -3.1237    3.2292   -1.1879 H   0  0  0  0  0  0  0  0  0  0  0  0
   -2.7279    1.8893   -3.2153 H   0  0  0  0  0  0  0  0  0  0  0  0
   -2.9292    0.8062   -1.7839 H   0  0  0  0  0  0  0  0  0  0  0  0
    0.1636   -0.2826   -3.5297 H   0  0  0  0  0  0  0  0  0  0  0  0
   -1.4706   -0.0255   -4.2114 H   0  0  0  0  0  0  0  0  0  0  0  0
   -2.4978   -1.1758   -2.2464 H   0  0  0  0  0  0  0  0  0  0  0  0
   -1.4832   -2.2366   -3.2437 H   0  0  0  0  0  0  0  0  0  0  0  0
    0.2158   -3.5844   -1.9222 H   0  0  0  0  0  0  0  0  0  0  0  0
    0.9484   -2.0819   -2.5586 H   0  0  0  0  0  0  0  0  0  0  0  0
    1.8541   -1.4834   -0.3667 H   0  0  0  0  0  0  0  0  0  0  0  0
    2.4938   -3.0422   -0.9956 H   0  0  0  0  0  0  0  0  0  0  0  0
    1.4437   -3.7760    2.4679 H   0  0  0  0  0  0  0  0  0  0  0  0
    2.9477   -3.6191    1.4900 H   0  0  0  0  0  0  0  0  0  0  0  0
    2.7307   -1.8364    3.2106 H   0  0  0  0  0  0  0  0  0  0  0  0
    2.8253   -1.1598    1.5521 H   0  0  0  0  0  0  0  0  0  0  0  0
    1.5090   -0.0902    4.1477 H   0  0  0  0  0  0  0  0  0  0  0  0
   -0.0930    0.3023    3.4556 H   0  0  0  0  0  0  0  0  0  0  0  0
    1.8314    2.0565    3.2096 H   0  0  0  0  0  0  0  0  0  0  0  0
    2.6042    0.9073    2.0944 H   0  0  0  0  0  0  0  0  0  0  0  0
    2.4304    3.2598    1.0642 H   0  0  0  0  0  0  0  0  0  0  0  0
    1.2146    3.1916   -0.2426 H   0  0  0  0  0  0  0  0  0  0  0  0
    4.3779    1.6548    1.0068 H   0  0  0  0  0  0  0  0  0  0  0  0
    5.7428    0.0522   -0.3289 H   0  0  0  0  0  0  0  0  0  0  0  0
    4.8901   -0.8024   -2.5263 H   0  0  0  0  0  0  0  0  0  0  0  0
    2.6701   -0.0206   -3.3871 H   0  0  0  0  0  0  0  0  0  0  0  0
    1.2706    1.5417   -2.0233 H   0  0  0  0  0  0  0  0  0  0  0  0
   -1.0002   -3.1079    0.2945 H   0  0  0  0  0  0  0  0  0  0  0  0
   -2.1727   -3.3202   -1.0486 H   0  0  0  0  0  0  0  0  0  0  0  0
   -4.2526   -1.8966   -1.1112 H   0  0  0  0  0  0  0  0  0  0  0  0
   -5.7512   -0.2810    0.0594 H   0  0  0  0  0  0  0  0  0  0  0  0
   -5.0042    0.8182    2.1840 H   0  0  0  0  0  0  0  0  0  0  0  0
   -2.7698    0.2446    3.1620 H   0  0  0  0  0  0  0  0  0  0  0  0
   -1.2559   -1.3751    1.9769 H   0  0  0  0  0  0  0  0  0  0  0  0
  1 15  1  0  0  0  0
  2 17  1  0  0  0  0
  3  8  1  0  0  0  0
  4 10  1  0  0  0  0
  5  7  1  0  0  0  0
  5 18  1  0  0  0  0
  6 26  1  0  0  0  0
  7 33  1  0  0  0  0
  7 34  1  0  0  0  0
  8 36  1  0  0  0  0
  8  7  1  0  0  0  0
  9 38  1  0  0  0  0
  9  3  1  0  0  0  0
 10 40  1  0  0  0  0
 10  9  1  0  0  0  0
 11 12  1  0  0  0  0
 11  4  1  0  0  0  0
 12 43  1  0  0  0  0
 12  6  1  0  0  0  0
 13  6  1  0  0  0  0
 13 14  1  0  0  0  0
 14 47  1  0  0  0  0
 14  1  1  0  0  0  0
 15 16  1  0  0  0  0
 15 49  1  0  0  0  0
 16  2  1  0  0  0  0
 16 51  1  0  0  0  0
 17 54  1  0  0  0  0
 17 53  1  0  0  0  0
 18 17  1  0  0  0  0
 18 55  1  0  0  0  0
 19 57  1  0  0  0  0
 19  5  1  0  0  0  0
 20 21  1  0  0  0  0
 20 19  1  0  0  0  0
 21 59  1  0  0  0  0
 22 60  1  0  0  0  0
 22 21  2  0  0  0  0
 23 22  1  0  0  0  0
 24 23  2  0  0  0  0
 24 25  1  0  0  0  0
 25 20  2  0  0  0  0
 26 64  1  0  0  0  0
 26 27  1  0  0  0  0
 27 32  1  0  0  0  0
 28 27  2  0  0  0  0
 28 29  1  0  0  0  0
 29 30  2  0  0  0  0
 30 68  1  0  0  0  0
 30 31  1  0  0  0  0
 31 69  1  0  0  0  0
 32 70  1  0  0  0  0
 32 31  2  0  0  0  0
 35  8  1  0  0  0  0
 37  9  1  0  0  0  0
 39 10  1  0  0  0  0
 41 11  1  0  0  0  0
 42 11  1  0  0  0  0
 44 12  1  0  0  0  0
 45 13  1  0  0  0  0
 46 13  1  0  0  0  0
 48 14  1  0  0  0  0
 50 15  1  0  0  0  0
 52 16  1  0  0  0  0
 56 18  1  0  0  0  0
 58 19  1  0  0  0  0
 61 23  1  0  0  0  0
 62 24  1  0  0  0  0
 63 25  1  0  0  0  0
 65 26  1  0  0  0  0
 66 28  1  0  0  0  0
 67 29  1  0  0  0  0
M  END
