5,6
 OpenBabel05122313053D

 25 26  0  0  0  0  0  0  0  0999 V2000
    5.3770   -1.4134   -0.4975 Cl  0  0  0  0  0  0  0  0  0  0  0  0
    1.7695    1.6647    2.2694 Cl  0  0  0  0  0  0  0  0  0  0  0  0
   -0.9082   -3.2727    0.5155 O   0  0  0  0  0  0  0  0  0  0  0  0
   -1.8786   -3.1337    0.5210 H   0  0  0  0  0  0  0  0  0  0  0  0
    0.5212    0.3304   -0.1495 N   0  0  0  0  0  2  0  0  0  0  0  0
   -0.4095   -2.0322    0.2491 N   0  0  0  0  0  2  0  0  0  0  0  0
    1.4357   -0.6452   -0.1420 C   0  0  0  0  0  0  0  0  0  0  0  0
    0.9199   -1.9904    0.0910 C   0  0  0  0  0  0  0  0  0  0  0  0
    1.8056   -3.1116    0.1492 C   0  0  0  0  0  0  0  0  0  0  0  0
    1.3901   -4.1114    0.3257 H   0  0  0  0  0  0  0  0  0  0  0  0
    3.1559   -2.9118   -0.0291 C   0  0  0  0  0  0  0  0  0  0  0  0
    3.8629   -3.7520   -0.0009 H   0  0  0  0  0  0  0  0  0  0  0  0
    3.6645   -1.5874   -0.2690 C   0  0  0  0  0  0  0  0  0  0  0  0
    2.8443   -0.4777   -0.3278 C   0  0  0  0  0  0  0  0  0  0  0  0
    3.2545    0.5222   -0.5165 H   0  0  0  0  0  0  0  0  0  0  0  0
    0.9083    1.6840   -0.3276 C   0  0  0  0  0  0  0  0  0  0  0  0
    1.4863    2.4278    0.7271 C   0  0  0  0  0  0  0  0  0  0  0  0
    1.8128    3.7812    0.5480 C   0  0  0  0  0  0  0  0  0  0  0  0
    2.2544    4.3381    1.3862 H   0  0  0  0  0  0  0  0  0  0  0  0
    1.5650    4.3983   -0.6859 C   0  0  0  0  0  0  0  0  0  0  0  0
    1.8217    5.4595   -0.8204 H   0  0  0  0  0  0  0  0  0  0  0  0
    0.9854    3.6693   -1.7375 C   0  0  0  0  0  0  0  0  0  0  0  0
    0.7842    4.1543   -2.7038 H   0  0  0  0  0  0  0  0  0  0  0  0
    0.6539    2.3209   -1.5587 C   0  0  0  0  0  0  0  0  0  0  0  0
    0.1784    1.7231   -2.3516 H   0  0  0  0  0  0  0  0  0  0  0  0
  1 13  1  0  0  0  0
  3  4  1  0  0  0  0
  5  7  1  0  0  0  0
  6  3  1  0  0  0  0
  7  8  1  0  0  0  0
  8  9  2  0  0  0  0
  8  6  1  0  0  0  0
  9 10  1  0  0  0  0
 11 12  1  0  0  0  0
 11  9  1  0  0  0  0
 13 11  2  0  0  0  0
 14 13  1  0  0  0  0
 14  7  2  0  0  0  0
 15 14  1  0  0  0  0
 16  5  1  0  0  0  0
 16 17  1  0  0  0  0
 17  2  1  0  0  0  0
 18 17  2  0  0  0  0
 18 19  1  0  0  0  0
 20 18  1  0  0  0  0
 21 20  1  0  0  0  0
 22 24  1  0  0  0  0
 22 20  2  0  0  0  0
 23 22  1  0  0  0  0
 24 16  2  0  0  0  0
 25 24  1  0  0  0  0
M  END
