8,14
 OpenBabel05122313053D

 20 21  0  0  1  0  0  0  0  0999 V2000
    3.2214    0.0000    0.0002 N   0  0  0  0  0  0  0  0  0  0  0  0
    2.6877    1.2758    0.0000 C   0  0  2  0  0  3  0  0  0  0  0  0
    3.8339    2.1676   -0.0000 C   0  0  0  0  0  0  0  0  0  0  0  0
    5.0170    1.3609    0.0001 C   0  0  0  0  0  0  0  0  0  0  0  0
    4.6118   -0.0000    0.0002 C   0  0  0  0  0  0  0  0  0  0  0  0
    5.0170   -1.3609    0.0001 C   0  0  0  0  0  0  0  0  0  0  0  0
    3.8339   -2.1676   -0.0000 C   0  0  0  0  0  0  0  0  0  0  0  0
    1.3883    1.4695   -0.0001 N   0  0  0  0  0  2  0  0  0  0  0  0
    3.7143    3.5743   -0.0001 C   0  0  0  0  0  0  0  0  0  0  0  0
    6.3532    1.8376    0.0000 C   0  0  0  0  0  0  0  0  0  0  0  0
    6.3532   -1.8376    0.0001 C   0  0  0  0  0  0  0  0  0  0  0  0
    3.7143   -3.5743   -0.0001 C   0  0  0  0  0  0  0  0  0  0  0  0
    2.6877   -1.2758    0.0000 C   0  0  0  0  0  0  0  0  0  0  0  0
    1.3883   -1.4695   -0.0001 N   0  0  0  0  0  2  0  0  0  0  0  0
    3.5416    4.7381   -0.0002 N   0  0  0  0  0  0  0  0  0  0  0  0
    7.4596    2.2304    0.0000 N   0  0  0  0  0  0  0  0  0  0  0  0
    7.4596   -2.2304    0.0000 N   0  0  0  0  0  0  0  0  0  0  0  0
    3.5416   -4.7381   -0.0002 N   0  0  0  0  0  0  0  0  0  0  0  0
    1.1223    2.4614   -0.0002 H   0  0  0  0  0  0  0  0  0  0  0  0
    1.1223   -2.4614   -0.0002 H   0  0  0  0  0  0  0  0  0  0  0  0
  2  8  1  1  0  0  0
  2  1  1  0  0  0  0
  3  2  1  0  0  0  0
  3  4  2  0  0  0  0
  4  5  1  0  0  0  0
  5  1  1  0  0  0  0
  6  5  2  0  0  0  0
  7 13  2  0  0  0  0
  7  6  1  0  0  0  0
  9  3  1  0  0  0  0
 10  4  1  0  0  0  0
 11  6  1  0  0  0  0
 12  7  1  0  0  0  0
 13  1  1  0  0  0  0
 14 13  1  0  0  0  0
 15  9  3  0  0  0  0
 16 10  3  0  0  0  0
 17 11  3  0  0  0  0
 18 12  3  0  0  0  0
 19  8  1  0  0  0  0
 20 14  1  0  0  0  0
M  END
