5,6
 OpenBabel05122313053D

 37 41  0  0  0  0  0  0  0  0999 V2000
   -9.6606    1.3759    1.1674 O   0  0  0  0  0  0  0  0  0  0  0  0
   -9.7171    1.3594   -1.0195 O   0  0  0  0  0  0  0  0  0  0  0  0
   -9.1430    1.2228    0.0614 N   0  0  0  0  0  0  0  0  0  0  0  0
   -2.8704   -0.4250    1.0812 N   0  0  0  0  0  0  0  0  0  0  0  0
    1.9152   -1.6669    1.3192 N   0  0  0  0  0  2  0  0  0  0  0  0
    1.9675   -1.7331   -1.2582 N   0  0  0  0  0  2  0  0  0  0  0  0
   -2.8407   -0.4701   -1.1641 N   0  0  0  0  0  0  0  0  0  0  0  0
   -3.1659   -0.3972   -2.1272 H   0  0  0  0  0  0  0  0  0  0  0  0
   -7.7111    0.8428    0.0277 C   0  0  0  0  0  0  0  0  0  0  0  0
   -7.0183    0.6764    1.2362 C   0  0  0  0  0  0  0  0  0  0  0  0
   -7.5549    0.8323    2.1814 H   0  0  0  0  0  0  0  0  0  0  0  0
   -7.0875    0.6598   -1.2134 C   0  0  0  0  0  0  0  0  0  0  0  0
   -7.6755    0.8029   -2.1294 H   0  0  0  0  0  0  0  0  0  0  0  0
   -5.7378    0.3015   -1.2424 C   0  0  0  0  0  0  0  0  0  0  0  0
   -5.2562    0.1602   -2.2221 H   0  0  0  0  0  0  0  0  0  0  0  0
    1.9765   -1.6275    2.6591 C   0  0  0  0  0  0  0  0  0  0  0  0
    2.9578   -1.8744    3.0914 H   0  0  0  0  0  0  0  0  0  0  0  0
    2.0913   -1.7601   -2.5944 C   0  0  0  0  0  0  0  0  0  0  0  0
    3.0903   -2.0295   -2.9684 H   0  0  0  0  0  0  0  0  0  0  0  0
   -5.6709    0.3185    1.1978 C   0  0  0  0  0  0  0  0  0  0  0  0
   -5.0913    0.1781    2.1207 H   0  0  0  0  0  0  0  0  0  0  0  0
   -0.3666   -1.0138    2.8472 C   0  0  0  0  0  0  0  0  0  0  0  0
   -1.2603   -0.7530    3.4319 H   0  0  0  0  0  0  0  0  0  0  0  0
    0.8584   -1.3052    3.4521 C   0  0  0  0  0  0  0  0  0  0  0  0
    0.9685   -1.2848    4.5457 H   0  0  0  0  0  0  0  0  0  0  0  0
   -3.5989   -0.2492   -0.0231 C   0  0  0  0  0  0  0  0  0  0  0  0
    1.0127   -1.4744   -3.4516 C   0  0  0  0  0  0  0  0  0  0  0  0
    1.1696   -1.5056   -4.5389 H   0  0  0  0  0  0  0  0  0  0  0  0
   -0.2366   -1.1510   -2.9167 C   0  0  0  0  0  0  0  0  0  0  0  0
   -1.0829   -0.9198   -3.5811 H   0  0  0  0  0  0  0  0  0  0  0  0
   -5.0104    0.1255   -0.0407 C   0  0  0  0  0  0  0  0  0  0  0  0
   -1.6175   -0.7657    0.6515 C   0  0  0  0  0  0  0  0  0  0  0  0
   -0.4445   -1.0518    1.4397 C   0  0  0  0  0  0  0  0  0  0  0  0
    0.7648   -1.4179   -0.7196 C   0  0  0  0  0  0  0  0  0  0  0  0
    0.7347   -1.3826    0.7159 C   0  0  0  0  0  0  0  0  0  0  0  0
   -1.5668   -0.8029   -0.7625 C   0  0  0  0  0  0  0  0  0  0  0  0
   -0.3856   -1.1196   -1.5115 C   0  0  0  0  0  0  0  0  0  0  0  0
  2  3  2  0  0  0  0
  3  1  2  0  0  0  0
  5 16  1  0  0  0  0
  6 34  1  0  0  0  0
  7 36  1  0  0  0  0
  7 26  1  0  0  0  0
  8  7  1  0  0  0  0
  9  3  1  0  0  0  0
  9 10  1  0  0  0  0
 10 11  1  0  0  0  0
 12  9  2  0  0  0  0
 13 12  1  0  0  0  0
 14 12  1  0  0  0  0
 14 31  2  0  0  0  0
 15 14  1  0  0  0  0
 16 17  1  0  0  0  0
 16 24  2  0  0  0  0
 18  6  1  0  0  0  0
 19 18  1  0  0  0  0
 20 10  2  0  0  0  0
 20 21  1  0  0  0  0
 22 23  1  0  0  0  0
 22 24  1  0  0  0  0
 24 25  1  0  0  0  0
 26  4  2  0  0  0  0
 27 29  1  0  0  0  0
 27 18  2  0  0  0  0
 28 27  1  0  0  0  0
 29 37  2  0  0  0  0
 30 29  1  0  0  0  0
 31 26  1  0  0  0  0
 31 20  1  0  0  0  0
 32  4  1  0  0  0  0
 32 33  1  0  0  0  0
 33 22  2  0  0  0  0
 34 35  2  0  0  0  0
 35  5  1  0  0  0  0
 35 33  1  0  0  0  0
 36 32  2  0  0  0  0
 37 36  1  0  0  0  0
 37 34  1  0  0  0  0
M  END
