4,6
 OpenBabel05122313053D

 16 16  0  0  0  0  0  0  0  0999 V2000
    6.7903    2.1764    0.0006 O   0  0  0  0  0  0  0  0  0  0  0  0
    4.7873    3.2359   -0.0000 O   0  0  0  0  0  0  0  0  0  0  0  0
    5.4087    3.9950   -0.0000 H   0  0  0  0  0  0  0  0  0  0  0  0
    2.6790   -0.2854    0.0000 N   0  0  0  0  0  2  0  0  0  0  0  0
    2.5750   -2.6240    0.0003 N   0  0  0  0  0  0  0  0  0  0  0  0
    1.2989   -2.3195   -0.0001 N   0  0  0  0  0  2  0  0  0  0  0  0
    0.7123   -3.1652    0.0000 H   0  0  0  0  0  0  0  0  0  0  0  0
    3.3364   -1.4988    0.0004 C   0  0  0  0  0  0  0  0  0  0  0  0
    4.7544   -1.5562    0.0007 C   0  0  0  0  0  0  0  0  0  0  0  0
    5.2323   -2.5446    0.0010 H   0  0  0  0  0  0  0  0  0  0  0  0
    5.4739   -0.3740    0.0007 C   0  0  0  0  0  0  0  0  0  0  0  0
    6.5736   -0.3600    0.0010 H   0  0  0  0  0  0  0  0  0  0  0  0
    4.7839    0.8676    0.0003 C   0  0  0  0  0  0  0  0  0  0  0  0
    3.3839    0.8623    0.0000 C   0  0  0  0  0  0  0  0  0  0  0  0
    2.7956    1.7922   -0.0002 H   0  0  0  0  0  0  0  0  0  0  0  0
    5.5706    2.1276    0.0003 C   0  0  0  0  0  0  0  0  0  0  0  0
  2  3  1  0  0  0  0
  2 16  1  0  0  0  0
  4  8  1  0  0  0  0
  5  8  2  0  0  0  0
  6  7  1  0  0  0  0
  6  5  1  0  0  0  0
  8  9  1  0  0  0  0
  9 10  1  0  0  0  0
 11  9  2  0  0  0  0
 11 12  1  0  0  0  0
 13 11  1  0  0  0  0
 14  4  1  0  0  0  0
 14 13  2  0  0  0  0
 15 14  1  0  0  0  0
 16 13  1  0  0  0  0
 16  1  2  0  0  0  0
M  END
