1,3
 OpenBabel05122313053D

 37 39  0  0  1  0  0  0  0  0999 V2000
    1.6857    2.1489    0.5804 N   0  0  0  0  0  2  0  0  0  0  0  0
   -0.3881    2.8323   -0.3312 N   0  0  0  0  0  2  0  0  0  0  0  0
   -0.5511    1.5279   -0.5700 N   0  0  0  0  0  2  0  0  0  0  0  0
   -0.9304   -0.5261   -2.4845 O   0  0  0  0  0  0  0  0  0  0  0  0
    2.8830    2.4760    1.1280 C   0  0  0  0  0  3  0  0  0  0  0  0
    3.5431    1.6347    1.3840 H   0  0  0  0  0  0  0  0  0  0  0  0
    3.2665    3.7933    1.3656 C   0  0  0  0  0  0  0  0  0  0  0  0
    4.2477    4.0040    1.8112 H   0  0  0  0  0  0  0  0  0  0  0  0
    2.3687    4.8312    1.0209 C   0  0  0  0  0  0  0  0  0  0  0  0
    2.6409    5.8824    1.1977 H   0  0  0  0  0  0  0  0  0  0  0  0
    1.1414    4.5145    0.4548 C   0  0  0  0  0  0  0  0  0  0  0  0
    0.4086    5.2785    0.1630 H   0  0  0  0  0  0  0  0  0  0  0  0
    0.7979    3.1513    0.2249 C   0  0  0  0  0  0  0  0  0  0  0  0
   -1.7600    1.1345   -1.0141 C   0  0  2  0  0  3  0  0  0  0  0  0
   -1.8344   -0.1780   -1.7053 C   0  0  0  0  0  0  0  0  0  0  0  0
   -2.9927   -1.0904   -1.4444 C   0  0  0  0  0  0  0  0  0  0  0  0
   -3.8518   -0.9361   -0.3330 C   0  0  0  0  0  0  0  0  0  0  0  0
   -3.7275   -0.0755    0.3397 H   0  0  0  0  0  0  0  0  0  0  0  0
   -4.8527   -1.8811   -0.0783 C   0  0  0  0  0  0  0  0  0  0  0  0
   -5.5139   -1.7555    0.7922 H   0  0  0  0  0  0  0  0  0  0  0  0
   -5.0177   -2.9841   -0.9343 C   0  0  0  0  0  0  0  0  0  0  0  0
   -5.8141   -3.7183   -0.7389 H   0  0  0  0  0  0  0  0  0  0  0  0
   -4.1709   -3.1430   -2.0450 C   0  0  0  0  0  0  0  0  0  0  0  0
   -4.3036   -4.0020   -2.7201 H   0  0  0  0  0  0  0  0  0  0  0  0
   -3.1627   -2.2045   -2.2946 C   0  0  0  0  0  0  0  0  0  0  0  0
   -2.4772   -2.3099   -3.1484 H   0  0  0  0  0  0  0  0  0  0  0  0
   -2.9528    2.0034   -0.9839 C   0  0  0  0  0  0  0  0  0  0  0  0
   -3.8701    1.9684   -2.0606 C   0  0  0  0  0  0  0  0  0  0  0  0
   -3.6435    1.3542   -2.9452 H   0  0  0  0  0  0  0  0  0  0  0  0
   -5.0561    2.7137   -2.0196 C   0  0  0  0  0  0  0  0  0  0  0  0
   -5.7522    2.6784   -2.8709 H   0  0  0  0  0  0  0  0  0  0  0  0
   -5.3516    3.5045   -0.8993 C   0  0  0  0  0  0  0  0  0  0  0  0
   -6.2827    4.0897   -0.8647 H   0  0  0  0  0  0  0  0  0  0  0  0
   -4.4486    3.5491    0.1784 C   0  0  0  0  0  0  0  0  0  0  0  0
   -4.6765    4.1671    1.0602 H   0  0  0  0  0  0  0  0  0  0  0  0
   -3.2589    2.8155    0.1360 C   0  0  0  0  0  0  0  0  0  0  0  0
   -2.5571    2.8588    0.9801 H   0  0  0  0  0  0  0  0  0  0  0  0
  1  5  1  0  0  0  0
  2 13  1  0  0  0  0
  3  2  1  0  0  0  0
  4 15  2  0  0  0  0
  5  7  1  0  0  0  0
  5  6  1  0  0  0  0
  7  8  1  0  0  0  0
  9 10  1  0  0  0  0
  9  7  2  0  0  0  0
 11  9  1  0  0  0  0
 12 11  1  0  0  0  0
 13 11  2  0  0  0  0
 13  1  1  0  0  0  0
 14 15  1  6  0  0  0
 14 27  1  0  0  0  0
 14  3  1  0  0  0  0
 15 16  1  0  0  0  0
 16 17  1  0  0  0  0
 17 19  2  0  0  0  0
 17 18  1  0  0  0  0
 19 20  1  0  0  0  0
 21 22  1  0  0  0  0
 21 19  1  0  0  0  0
 23 21  2  0  0  0  0
 24 23  1  0  0  0  0
 25 23  1  0  0  0  0
 25 16  2  0  0  0  0
 26 25  1  0  0  0  0
 27 36  1  0  0  0  0
 28 30  1  0  0  0  0
 28 27  2  0  0  0  0
 29 28  1  0  0  0  0
 30 32  2  0  0  0  0
 31 30  1  0  0  0  0
 32 33  1  0  0  0  0
 32 34  1  0  0  0  0
 34 35  1  0  0  0  0
 36 34  2  0  0  0  0
 36 37  1  0  0  0  0
M  END
