1,3
 OpenBabel05122313053D

 47 50  0  0  0  0  0  0  0  0999 V2000
   -1.5509    0.3982   -0.0123 N   0  0  0  0  0  0  0  0  0  0  0  0
   -1.5355   -0.3801    0.6644 H   0  0  0  0  0  0  0  0  0  0  0  0
    1.5509    0.3982   -0.0124 N   0  0  0  0  0  0  0  0  0  0  0  0
    1.5355   -0.3800    0.6644 H   0  0  0  0  0  0  0  0  0  0  0  0
   -6.2277   -2.3484    1.2820 O   0  0  0  0  0  0  0  0  0  0  0  0
   -7.3440   -2.1186   -0.7372 O   0  0  0  0  0  0  0  0  0  0  0  0
    6.2278   -2.3483    1.2821 O   0  0  0  0  0  0  0  0  0  0  0  0
    7.3439   -2.1187   -0.7373 O   0  0  0  0  0  0  0  0  0  0  0  0
   -1.3075   -0.1085   -1.3749 C   0  0  0  0  0  0  0  0  0  0  0  0
   -1.2650    0.7827   -2.0370 H   0  0  0  0  0  0  0  0  0  0  0  0
   -2.1565   -0.7423   -1.7172 H   0  0  0  0  0  0  0  0  0  0  0  0
   -0.0000   -0.9010   -1.4872 C   0  0  0  0  0  0  0  0  0  0  0  0
   -0.0000   -1.7340   -0.7457 H   0  0  0  0  0  0  0  0  0  0  0  0
   -0.0001   -1.3972   -2.4794 H   0  0  0  0  0  0  0  0  0  0  0  0
    1.3075   -0.1085   -1.3749 C   0  0  0  0  0  0  0  0  0  0  0  0
    2.1564   -0.7423   -1.7173 H   0  0  0  0  0  0  0  0  0  0  0  0
    1.2649    0.7827   -2.0371 H   0  0  0  0  0  0  0  0  0  0  0  0
   -2.8234    1.1485    0.1609 C   0  0  0  0  0  0  0  0  0  0  0  0
   -2.7595    2.0368   -0.4998 H   0  0  0  0  0  0  0  0  0  0  0  0
   -2.8146    1.5137    1.2091 H   0  0  0  0  0  0  0  0  0  0  0  0
   -4.0667    0.3379   -0.1196 C   0  0  0  0  0  0  0  0  0  0  0  0
   -4.5082   -0.6051    0.8487 C   0  0  0  0  0  0  0  0  0  0  0  0
   -3.9983   -0.7176    1.8171 H   0  0  0  0  0  0  0  0  0  0  0  0
   -5.6228   -1.3708    0.5356 C   0  0  0  0  0  0  0  0  0  0  0  0
   -6.3013   -1.2306   -0.6892 C   0  0  0  0  0  0  0  0  0  0  0  0
   -5.8890   -0.3163   -1.6506 C   0  0  0  0  0  0  0  0  0  0  0  0
   -6.4252   -0.2106   -2.6034 H   0  0  0  0  0  0  0  0  0  0  0  0
   -4.7533    0.4677   -1.3405 C   0  0  0  0  0  0  0  0  0  0  0  0
   -4.4000    1.2097   -2.0727 H   0  0  0  0  0  0  0  0  0  0  0  0
   -7.4131   -2.7106    0.5648 C   0  0  0  0  0  0  0  0  0  0  0  0
   -7.4681   -3.8164    0.4695 H   0  0  0  0  0  0  0  0  0  0  0  0
   -8.3106   -2.3220    1.1052 H   0  0  0  0  0  0  0  0  0  0  0  0
    2.8234    1.1485    0.1608 C   0  0  0  0  0  0  0  0  0  0  0  0
    2.8147    1.5138    1.2089 H   0  0  0  0  0  0  0  0  0  0  0  0
    2.7595    2.0368   -0.5000 H   0  0  0  0  0  0  0  0  0  0  0  0
    4.0667    0.3379   -0.1197 C   0  0  0  0  0  0  0  0  0  0  0  0
    4.5082   -0.6049    0.8487 C   0  0  0  0  0  0  0  0  0  0  0  0
    3.9984   -0.7174    1.8172 H   0  0  0  0  0  0  0  0  0  0  0  0
    5.6228   -1.3707    0.5356 C   0  0  0  0  0  0  0  0  0  0  0  0
    6.3012   -1.2307   -0.6892 C   0  0  0  0  0  0  0  0  0  0  0  0
    5.8889   -0.3165   -1.6508 C   0  0  0  0  0  0  0  0  0  0  0  0
    6.4250   -0.2110   -2.6036 H   0  0  0  0  0  0  0  0  0  0  0  0
    4.7532    0.4675   -1.3407 C   0  0  0  0  0  0  0  0  0  0  0  0
    4.3999    1.2094   -2.0729 H   0  0  0  0  0  0  0  0  0  0  0  0
    7.4132   -2.7103    0.5650 C   0  0  0  0  0  0  0  0  0  0  0  0
    8.3107   -2.3214    1.1052 H   0  0  0  0  0  0  0  0  0  0  0  0
    7.4685   -3.8161    0.4699 H   0  0  0  0  0  0  0  0  0  0  0  0
  1 18  1  0  0  0  0
  1  2  1  0  0  0  0
  3 33  1  0  0  0  0
  3  4  1  0  0  0  0
  6 25  1  0  0  0  0
  6 30  1  0  0  0  0
  8 40  1  0  0  0  0
  8 45  1  0  0  0  0
  9  1  1  0  0  0  0
 10  9  1  0  0  0  0
 11  9  1  0  0  0  0
 12 15  1  0  0  0  0
 12  9  1  0  0  0  0
 12 13  1  0  0  0  0
 14 12  1  0  0  0  0
 15  3  1  0  0  0  0
 16 15  1  0  0  0  0
 17 15  1  0  0  0  0
 18 20  1  0  0  0  0
 19 18  1  0  0  0  0
 21 18  1  0  0  0  0
 21 22  1  0  0  0  0
 22 23  1  0  0  0  0
 24 22  2  0  0  0  0
 24  5  1  0  0  0  0
 25 24  1  0  0  0  0
 26 28  1  0  0  0  0
 26 25  2  0  0  0  0
 27 26  1  0  0  0  0
 28 21  2  0  0  0  0
 29 28  1  0  0  0  0
 30 32  1  0  0  0  0
 30  5  1  0  0  0  0
 31 30  1  0  0  0  0
 33 34  1  0  0  0  0
 35 33  1  0  0  0  0
 36 33  1  0  0  0  0
 36 37  1  0  0  0  0
 37 38  1  0  0  0  0
 39 37  2  0  0  0  0
 39  7  1  0  0  0  0
 40 39  1  0  0  0  0
 41 43  1  0  0  0  0
 41 40  2  0  0  0  0
 42 41  1  0  0  0  0
 43 36  2  0  0  0  0
 44 43  1  0  0  0  0
 45 46  1  0  0  0  0
 45  7  1  0  0  0  0
 47 45  1  0  0  0  0
M  END
