4,5
 OpenBabel05122313053D

 37 39  0  0  1  0  0  0  0  0999 V2000
   -1.4280   -1.9369   -0.4388 O   0  0  0  0  0  0  0  0  0  0  0  0
   -1.1078    0.3171   -0.5668 N   0  0  0  0  0  0  0  0  0  0  0  0
   -1.4767    1.2715   -0.4618 H   0  0  0  0  0  0  0  0  0  0  0  0
    0.2109    0.1118   -0.5784 N   0  0  0  0  0  2  0  0  0  0  0  0
    2.6563   -0.6842   -0.2527 N   0  0  0  0  0  2  0  0  0  0  0  0
   -6.1903   -0.2578   -0.2142 N   0  0  0  0  0  0  0  0  0  0  0  0
   -1.9168   -0.8069   -0.4511 C   0  0  0  0  0  0  0  0  0  0  0  0
    1.0669    1.0871   -0.4581 C   0  0  2  0  0  3  0  0  0  0  0  0
    2.4790    0.6491   -0.3987 C   0  0  1  0  0  3  0  0  0  0  0  0
    3.5740    1.5302   -0.4651 C   0  0  0  0  0  0  0  0  0  0  0  0
    3.4091    2.6130   -0.5551 H   0  0  0  0  0  0  0  0  0  0  0  0
    4.8682    0.9912   -0.4153 C   0  0  0  0  0  0  0  0  0  0  0  0
    5.7436    1.6557   -0.4685 H   0  0  0  0  0  0  0  0  0  0  0  0
    5.0339   -0.3964   -0.2983 C   0  0  0  0  0  0  0  0  0  0  0  0
    6.0337   -0.8518   -0.2601 H   0  0  0  0  0  0  0  0  0  0  0  0
    3.8871   -1.2041   -0.2132 C   0  0  0  0  0  0  0  0  0  0  0  0
    3.9199   -2.3037   -0.1101 H   0  0  0  0  0  0  0  0  0  0  0  0
   -3.3870   -0.5577   -0.3657 C   0  0  0  0  0  0  0  0  0  0  0  0
   -4.2432   -1.6646   -0.5119 C   0  0  0  0  0  0  0  0  0  0  0  0
   -3.8098   -2.6608   -0.6817 H   0  0  0  0  0  0  0  0  0  0  0  0
   -5.6275   -1.4582   -0.4326 C   0  0  0  0  0  0  0  0  0  0  0  0
   -6.3198   -2.3105   -0.5503 H   0  0  0  0  0  0  0  0  0  0  0  0
   -5.3693    0.7915   -0.0595 C   0  0  0  0  0  0  0  0  0  0  0  0
   -5.8483    1.7680    0.1333 H   0  0  0  0  0  0  0  0  0  0  0  0
   -3.9698    0.7022   -0.1254 C   0  0  0  0  0  0  0  0  0  0  0  0
   -3.3709    1.6118    0.0388 H   0  0  0  0  0  0  0  0  0  0  0  0
    0.6444    2.4889   -0.2000 C   0  0  0  0  0  0  0  0  0  0  0  0
    0.0128    2.7505    1.0396 C   0  0  0  0  0  0  0  0  0  0  0  0
   -0.1024    1.9208    1.7592 H   0  0  0  0  0  0  0  0  0  0  0  0
   -0.4281    4.0488    1.3344 C   0  0  0  0  0  0  0  0  0  0  0  0
   -0.9097    4.2533    2.3026 H   0  0  0  0  0  0  0  0  0  0  0  0
   -0.2449    5.0858    0.4041 C   0  0  0  0  0  0  0  0  0  0  0  0
   -0.5911    6.1035    0.6397 H   0  0  0  0  0  0  0  0  0  0  0  0
    0.3809    4.8264   -0.8259 C   0  0  0  0  0  0  0  0  0  0  0  0
    0.5214    5.6384   -1.5551 H   0  0  0  0  0  0  0  0  0  0  0  0
    0.8258    3.5310   -1.1317 C   0  0  0  0  0  0  0  0  0  0  0  0
    1.3062    3.3221   -2.0998 H   0  0  0  0  0  0  0  0  0  0  0  0
  2  3  1  0  0  0  0
  2  7  1  0  0  0  0
  4  2  1  0  0  0  0
  5 16  1  0  0  0  0
  6 23  1  0  0  0  0
  7  1  2  0  0  0  0
  7 18  1  0  0  0  0
  8  4  1  1  0  0  0
  8 27  1  0  0  0  0
  9  8  1  1  0  0  0
  9  5  1  0  0  0  0
 10 12  2  0  0  0  0
 10  9  1  0  0  0  0
 11 10  1  0  0  0  0
 12 14  1  0  0  0  0
 13 12  1  0  0  0  0
 14 15  1  0  0  0  0
 14 16  2  0  0  0  0
 16 17  1  0  0  0  0
 18 25  1  0  0  0  0
 19 21  1  0  0  0  0
 19 18  2  0  0  0  0
 20 19  1  0  0  0  0
 21  6  2  0  0  0  0
 22 21  1  0  0  0  0
 23 24  1  0  0  0  0
 25 23  2  0  0  0  0
 25 26  1  0  0  0  0
 27 28  1  0  0  0  0
 28 30  2  0  0  0  0
 28 29  1  0  0  0  0
 30 31  1  0  0  0  0
 32 33  1  0  0  0  0
 32 30  1  0  0  0  0
 34 32  2  0  0  0  0
 35 34  1  0  0  0  0
 36 34  1  0  0  0  0
 36 27  2  0  0  0  0
 37 36  1  0  0  0  0
M  END
