1,3
 OpenBabel05122313053D

 41 43  0  0  1  0  0  0  0  0999 V2000
   -0.8861   -0.3812   -0.2213 N   0  0  0  0  0  0  0  0  0  0  0  0
    1.0372   -1.3850   -1.9534 N   0  0  0  0  0  0  0  0  0  0  0  0
    0.2202    1.9383   -0.6792 N   0  0  0  0  0  2  0  0  0  0  0  0
   -1.7710   -0.0216    0.9492 C   0  0  0  0  0  0  0  0  0  0  0  0
   -3.2406   -0.3059    0.7470 C   0  0  0  0  0  0  0  0  0  0  0  0
   -3.7862   -1.5779    1.0211 C   0  0  0  0  0  0  0  0  0  0  0  0
   -5.1481   -1.8391    0.8090 C   0  0  0  0  0  0  0  0  0  0  0  0
   -5.9923   -0.8272    0.3247 C   0  0  0  0  0  0  0  0  0  0  0  0
   -5.4689    0.4496    0.0664 C   0  0  0  0  0  0  0  0  0  0  0  0
   -4.1061    0.7056    0.2790 C   0  0  0  0  0  0  0  0  0  0  0  0
   -0.8283   -1.8454   -0.4330 C   0  0  0  0  0  0  0  0  0  0  0  0
    0.3721   -2.3089   -1.2391 C   0  0  0  0  0  0  0  0  0  0  0  0
    0.7658   -3.6576   -1.1958 C   0  0  0  0  0  0  0  0  0  0  0  0
    1.9190   -4.0446   -1.8907 C   0  0  0  0  0  0  0  0  0  0  0  0
    2.6376   -3.0715   -2.6025 C   0  0  0  0  0  0  0  0  0  0  0  0
    2.1485   -1.7586   -2.6102 C   0  0  0  0  0  0  0  0  0  0  0  0
   -1.3142    0.3106   -1.4742 C   0  0  0  0  0  0  0  0  0  0  0  0
   -0.9464    1.7543   -1.3567 C   0  0  2  0  0  3  0  0  0  0  0  0
   -1.6693    2.8315   -1.8786 C   0  0  0  0  0  0  0  0  0  0  0  0
   -1.1740    4.1325   -1.6998 C   0  0  0  0  0  0  0  0  0  0  0  0
    0.0168    4.3084   -0.9786 C   0  0  0  0  0  0  0  0  0  0  0  0
    0.6868    3.1913   -0.4719 C   0  0  0  0  0  0  0  0  0  0  0  0
   -3.1363   -2.3686    1.4271 H   0  0  0  0  0  0  0  0  0  0  0  0
   -5.5561   -2.8363    1.0343 H   0  0  0  0  0  0  0  0  0  0  0  0
   -7.0617   -1.0302    0.1619 H   0  0  0  0  0  0  0  0  0  0  0  0
   -6.1287    1.2537   -0.2939 H   0  0  0  0  0  0  0  0  0  0  0  0
   -3.6993    1.7128    0.0941 H   0  0  0  0  0  0  0  0  0  0  0  0
   -2.6110    2.6436   -2.4144 H   0  0  0  0  0  0  0  0  0  0  0  0
   -1.3549   -0.5763    1.8119 H   0  0  0  0  0  0  0  0  0  0  0  0
   -1.5831    1.0467    1.1681 H   0  0  0  0  0  0  0  0  0  0  0  0
    1.5907    3.2759    0.1469 H   0  0  0  0  0  0  0  0  0  0  0  0
    0.1890   -4.3857   -0.6049 H   0  0  0  0  0  0  0  0  0  0  0  0
    2.2624   -5.0898   -1.8634 H   0  0  0  0  0  0  0  0  0  0  0  0
    3.5586   -3.3254   -3.1474 H   0  0  0  0  0  0  0  0  0  0  0  0
    2.6746   -0.9620   -3.1633 H   0  0  0  0  0  0  0  0  0  0  0  0
   -0.7142   -0.1394   -2.2922 H   0  0  0  0  0  0  0  0  0  0  0  0
   -2.3953    0.1575   -1.6743 H   0  0  0  0  0  0  0  0  0  0  0  0
   -1.7210    4.9980   -2.1016 H   0  0  0  0  0  0  0  0  0  0  0  0
    0.4266    5.3104   -0.7890 H   0  0  0  0  0  0  0  0  0  0  0  0
   -0.7856   -2.3235    0.5637 H   0  0  0  0  0  0  0  0  0  0  0  0
   -1.7742   -2.1898   -0.9120 H   0  0  0  0  0  0  0  0  0  0  0  0
  1  4  1  0  0  0  0
  2 12  1  0  0  0  0
  3 22  1  0  0  0  0
  4 30  1  0  0  0  0
  4 29  1  0  0  0  0
  5  4  1  0  0  0  0
  5  6  1  0  0  0  0
  6 23  1  0  0  0  0
  7  6  2  0  0  0  0
  7 24  1  0  0  0  0
  8  7  1  0  0  0  0
  9 10  1  0  0  0  0
  9  8  2  0  0  0  0
 10  5  2  0  0  0  0
 11  1  1  0  0  0  0
 11 40  1  0  0  0  0
 12 13  2  0  0  0  0
 12 11  1  0  0  0  0
 13 32  1  0  0  0  0
 14 33  1  0  0  0  0
 14 13  1  0  0  0  0
 15 14  2  0  0  0  0
 16 15  1  0  0  0  0
 16  2  2  0  0  0  0
 17  1  1  0  0  0  0
 18 17  1  6  0  0  0
 18  3  1  0  0  0  0
 19 20  2  0  0  0  0
 19 18  1  0  0  0  0
 20 21  1  0  0  0  0
 21 39  1  0  0  0  0
 21 22  2  0  0  0  0
 22 31  1  0  0  0  0
 25  8  1  0  0  0  0
 26  9  1  0  0  0  0
 27 10  1  0  0  0  0
 28 19  1  0  0  0  0
 34 15  1  0  0  0  0
 35 16  1  0  0  0  0
 36 17  1  0  0  0  0
 37 17  1  0  0  0  0
 38 20  1  0  0  0  0
 41 11  1  0  0  0  0
M  END
