1,3
 OpenBabel05122313053D

 58 62  0  0  1  0  0  0  0  0999 V2000
   -1.5129    0.3967   -0.0736 N   0  0  0  0  0  0  0  0  0  0  0  0
   -1.5577    0.7607   -1.0359 H   0  0  0  0  0  0  0  0  0  0  0  0
    1.1561   -0.4456   -0.0674 N   0  0  0  0  0  0  0  0  0  0  0  0
    1.2772    0.0504   -0.9639 H   0  0  0  0  0  0  0  0  0  0  0  0
   -0.2358    2.6002    0.0379 C   0  0  0  0  0  0  0  0  0  0  0  0
   -0.5580    1.2631    0.6886 C   0  0  2  0  0  0  0  0  0  0  0  0
   -1.0260    1.4670    1.6706 H   0  0  0  0  0  0  0  0  0  0  0  0
    0.8453    0.6096    0.9604 C   0  0  2  0  0  0  0  0  0  0  0  0
    0.8595    0.1120    1.9445 H   0  0  0  0  0  0  0  0  0  0  0  0
   -2.8737    0.3794    0.4320 C   0  0  0  0  0  0  0  0  0  0  0  0
   -3.1418   -0.0934    1.7387 C   0  0  0  0  0  0  0  0  0  0  0  0
    1.1503    2.8426    0.2052 C   0  0  0  0  0  0  0  0  0  0  0  0
    1.8220    1.7647    0.8355 C   0  0  0  0  0  0  0  0  0  0  0  0
    0.9614    5.0256   -0.8173 C   0  0  0  0  0  0  0  0  0  0  0  0
    1.4000    5.9771   -1.1552 H   0  0  0  0  0  0  0  0  0  0  0  0
   -3.9120    0.7906   -0.4400 C   0  0  0  0  0  0  0  0  0  0  0  0
    1.7930    4.0467   -0.1931 C   0  0  0  0  0  0  0  0  0  0  0  0
    2.4040   -1.1470    0.1693 C   0  0  0  0  0  0  0  0  0  0  0  0
   -1.0253    3.5756   -0.5538 C   0  0  0  0  0  0  0  0  0  0  0  0
   -2.1119    3.4484   -0.6708 H   0  0  0  0  0  0  0  0  0  0  0  0
    2.5548   -2.0112    1.2805 C   0  0  0  0  0  0  0  0  0  0  0  0
    1.4079   -2.3842    2.1812 C   0  0  0  0  0  0  0  0  0  0  0  0
    1.1200   -1.5793    2.8910 H   0  0  0  0  0  0  0  0  0  0  0  0
    1.6693   -3.2703    2.7893 H   0  0  0  0  0  0  0  0  0  0  0  0
    0.5133   -2.6352    1.5709 H   0  0  0  0  0  0  0  0  0  0  0  0
    3.1778    1.8781    1.1107 C   0  0  0  0  0  0  0  0  0  0  0  0
    3.7377    1.0627    1.5909 H   0  0  0  0  0  0  0  0  0  0  0  0
   -2.0750   -0.7268    2.5937 C   0  0  0  0  0  0  0  0  0  0  0  0
   -1.4170   -1.3727    1.9726 H   0  0  0  0  0  0  0  0  0  0  0  0
   -2.5336   -1.3583    3.3777 H   0  0  0  0  0  0  0  0  0  0  0  0
   -1.4249    0.0106    3.1124 H   0  0  0  0  0  0  0  0  0  0  0  0
   -0.4001    4.7842   -0.9900 C   0  0  0  0  0  0  0  0  0  0  0  0
   -1.0243    5.5555   -1.4659 H   0  0  0  0  0  0  0  0  0  0  0  0
   -3.6369    1.0788   -1.8946 C   0  0  0  0  0  0  0  0  0  0  0  0
   -2.8720    1.8689   -2.0576 H   0  0  0  0  0  0  0  0  0  0  0  0
   -4.5559    1.4095   -2.4130 H   0  0  0  0  0  0  0  0  0  0  0  0
   -3.2803    0.1467   -2.3873 H   0  0  0  0  0  0  0  0  0  0  0  0
    3.1902    4.1320    0.0881 C   0  0  0  0  0  0  0  0  0  0  0  0
    3.7476    5.0379   -0.1960 H   0  0  0  0  0  0  0  0  0  0  0  0
    3.4506   -0.9403   -0.7630 C   0  0  0  0  0  0  0  0  0  0  0  0
    3.8461    3.0805    0.7276 C   0  0  0  0  0  0  0  0  0  0  0  0
    4.9220    3.1733    0.9402 H   0  0  0  0  0  0  0  0  0  0  0  0
   -4.4723   -0.0391    2.1951 C   0  0  0  0  0  0  0  0  0  0  0  0
   -4.6962   -0.4063    3.2086 H   0  0  0  0  0  0  0  0  0  0  0  0
    3.8202   -2.5961    1.4812 C   0  0  0  0  0  0  0  0  0  0  0  0
    3.9536   -3.2738    2.3385 H   0  0  0  0  0  0  0  0  0  0  0  0
    3.2263   -0.1107   -2.0032 C   0  0  0  0  0  0  0  0  0  0  0  0
    2.4035   -0.5365   -2.6192 H   0  0  0  0  0  0  0  0  0  0  0  0
    4.1328   -0.0968   -2.6364 H   0  0  0  0  0  0  0  0  0  0  0  0
    2.9764    0.9475   -1.7701 H   0  0  0  0  0  0  0  0  0  0  0  0
   -5.2244    0.8243    0.0625 C   0  0  0  0  0  0  0  0  0  0  0  0
   -6.0391    1.1445   -0.6049 H   0  0  0  0  0  0  0  0  0  0  0  0
   -5.5048    0.4346    1.3779 C   0  0  0  0  0  0  0  0  0  0  0  0
   -6.5376    0.4666    1.7554 H   0  0  0  0  0  0  0  0  0  0  0  0
    4.6908   -1.5563   -0.5247 C   0  0  0  0  0  0  0  0  0  0  0  0
    5.5104   -1.3996   -1.2426 H   0  0  0  0  0  0  0  0  0  0  0  0
    4.8847   -2.3642    0.6024 C   0  0  0  0  0  0  0  0  0  0  0  0
    5.8611   -2.8388    0.7811 H   0  0  0  0  0  0  0  0  0  0  0  0
  1 10  1  0  0  0  0
  1  6  1  0  0  0  0
  2  1  1  0  0  0  0
  3 18  1  0  0  0  0
  3  8  1  0  0  0  0
  4  3  1  0  0  0  0
  5 12  1  0  0  0  0
  5  6  1  0  0  0  0
  6  8  1  0  0  0  0
  6  7  1  1  0  0  0
  8  9  1  1  0  0  0
 10 11  1  0  0  0  0
 11 43  2  0  0  0  0
 11 28  1  0  0  0  0
 12 13  1  0  0  0  0
 13  8  1  0  0  0  0
 13 26  2  0  0  0  0
 14 17  1  0  0  0  0
 15 14  1  0  0  0  0
 16 51  1  0  0  0  0
 16 10  2  0  0  0  0
 17 38  1  0  0  0  0
 17 12  2  0  0  0  0
 18 21  1  0  0  0  0
 19  5  2  0  0  0  0
 20 19  1  0  0  0  0
 21 45  2  0  0  0  0
 21 22  1  0  0  0  0
 22 24  1  0  0  0  0
 22 23  1  0  0  0  0
 25 22  1  0  0  0  0
 26 27  1  0  0  0  0
 28 31  1  0  0  0  0
 28 30  1  0  0  0  0
 29 28  1  0  0  0  0
 32 14  2  0  0  0  0
 32 19  1  0  0  0  0
 33 32  1  0  0  0  0
 34 16  1  0  0  0  0
 35 34  1  0  0  0  0
 36 34  1  0  0  0  0
 37 34  1  0  0  0  0
 38 41  2  0  0  0  0
 39 38  1  0  0  0  0
 40 55  1  0  0  0  0
 40 18  2  0  0  0  0
 41 42  1  0  0  0  0
 41 26  1  0  0  0  0
 43 44  1  0  0  0  0
 45 46  1  0  0  0  0
 47 50  1  0  0  0  0
 47 40  1  0  0  0  0
 48 47  1  0  0  0  0
 49 47  1  0  0  0  0
 51 53  2  0  0  0  0
 52 51  1  0  0  0  0
 53 54  1  0  0  0  0
 53 43  1  0  0  0  0
 55 57  2  0  0  0  0
 56 55  1  0  0  0  0
 57 58  1  0  0  0  0
 57 45  1  0  0  0  0
M  END
