1,2
 OpenBabel05122313053D

 34 36  0  0  0  0  0  0  0  0999 V2000
    2.9456    0.9847    0.3057 N   0  0  0  0  0  2  0  0  0  0  0  0
    0.2916    0.9181    0.3058 N   0  0  0  0  0  2  0  0  0  0  0  0
    4.2924    0.9766    0.3592 C   0  0  0  0  0  3  0  0  0  0  0  0
    4.7716   -0.0126    0.3283 H   0  0  0  0  0  0  0  0  0  0  0  0
    5.0483    2.1519    0.4341 C   0  0  0  0  0  0  0  0  0  0  0  0
    6.1447    2.0875    0.4691 H   0  0  0  0  0  0  0  0  0  0  0  0
    4.3871    3.3918    0.4551 C   0  0  0  0  0  0  0  0  0  0  0  0
    4.9564    4.3312    0.5092 H   0  0  0  0  0  0  0  0  0  0  0  0
    2.9909    3.4086    0.4061 C   0  0  0  0  0  0  0  0  0  0  0  0
    2.4279    4.3528    0.4232 H   0  0  0  0  0  0  0  0  0  0  0  0
    2.2911    2.1888    0.3278 C   0  0  0  0  0  0  0  0  0  0  0  0
    0.8461    2.1042    0.3127 C   0  0  0  0  0  3  0  0  0  0  0  0
    0.2367    3.0239    0.3649 H   0  0  0  0  0  0  0  0  0  0  0  0
   -1.1172    0.7936    0.2532 C   0  0  0  0  0  0  0  0  0  0  0  0
   -1.8798    1.5813   -0.6344 C   0  0  0  0  0  0  0  0  0  0  0  0
   -1.3661    2.2612   -1.3294 H   0  0  0  0  0  0  0  0  0  0  0  0
   -3.2676    1.4253   -0.6892 C   0  0  0  0  0  0  0  0  0  0  0  0
   -3.8429    2.0076   -1.4239 H   0  0  0  0  0  0  0  0  0  0  0  0
   -3.9364    0.4937    0.1380 C   0  0  0  0  0  0  0  0  0  0  0  0
   -3.1510   -0.2911    1.0167 C   0  0  0  0  0  0  0  0  0  0  0  0
   -3.6439   -1.0086    1.6887 H   0  0  0  0  0  0  0  0  0  0  0  0
   -1.7629   -0.1593    1.0675 C   0  0  0  0  0  0  0  0  0  0  0  0
   -1.1627   -0.7710    1.7556 H   0  0  0  0  0  0  0  0  0  0  0  0
   -5.4087    0.3311    0.0746 C   0  0  0  0  0  0  0  0  0  0  0  0
   -6.2518    1.4382   -0.1767 C   0  0  0  0  0  0  0  0  0  0  0  0
   -5.8094    2.4382   -0.3000 H   0  0  0  0  0  0  0  0  0  0  0  0
   -7.6432    1.2851   -0.2355 C   0  0  0  0  0  0  0  0  0  0  0  0
   -8.2806    2.1627   -0.4224 H   0  0  0  0  0  0  0  0  0  0  0  0
   -8.2239    0.0207   -0.0468 C   0  0  0  0  0  0  0  0  0  0  0  0
   -9.3166   -0.1000   -0.0943 H   0  0  0  0  0  0  0  0  0  0  0  0
   -7.4000   -1.0887    0.2018 C   0  0  0  0  0  0  0  0  0  0  0  0
   -7.8443   -2.0861    0.3401 H   0  0  0  0  0  0  0  0  0  0  0  0
   -6.0087   -0.9355    0.2627 C   0  0  0  0  0  0  0  0  0  0  0  0
   -5.3718   -1.8173    0.4284 H   0  0  0  0  0  0  0  0  0  0  0  0
  1 11  1  0  0  0  0
  1  3  1  0  0  0  0
  2 12  1  0  0  0  0
  3  5  1  0  0  0  0
  4  3  1  0  0  0  0
  5  7  2  0  0  0  0
  5  6  1  0  0  0  0
  7  8  1  0  0  0  0
  9 10  1  0  0  0  0
  9  7  1  0  0  0  0
 11  9  2  0  0  0  0
 12 11  1  0  0  0  0
 12 13  1  0  0  0  0
 14  2  1  0  0  0  0
 14 22  1  0  0  0  0
 15 14  2  0  0  0  0
 16 15  1  0  0  0  0
 17 15  1  0  0  0  0
 17 19  2  0  0  0  0
 18 17  1  0  0  0  0
 19 20  1  0  0  0  0
 20 22  2  0  0  0  0
 20 21  1  0  0  0  0
 22 23  1  0  0  0  0
 24 19  1  0  0  0  0
 24 33  1  0  0  0  0
 25 24  2  0  0  0  0
 26 25  1  0  0  0  0
 27 25  1  0  0  0  0
 27 29  2  0  0  0  0
 28 27  1  0  0  0  0
 29 31  1  0  0  0  0
 30 29  1  0  0  0  0
 31 33  2  0  0  0  0
 31 32  1  0  0  0  0
 33 34  1  0  0  0  0
M  END
