2,3
 OpenBabel05122313053D

 34 36  0  0  1  0  0  0  0  0999 V2000
   -0.5350    1.3405    1.0272 O   0  0  0  0  0  0  0  0  0  0  0  0
   -0.7124   -0.0478    0.6624 N   0  0  0  0  0  0  0  0  0  0  0  0
    2.1262    0.8291    0.1375 N   0  0  0  0  0  2  0  0  0  0  0  0
   -0.0464    1.9598   -0.1675 C   0  0  2  0  0  0  0  0  0  0  0  0
   -0.4113    3.0052   -0.1284 H   0  0  0  0  0  0  0  0  0  0  0  0
   -0.6932    1.1658   -1.3404 C   0  0  0  0  0  0  0  0  0  0  0  0
   -1.3456    1.8074   -1.9607 H   0  0  0  0  0  0  0  0  0  0  0  0
    0.0847    0.7206   -1.9897 H   0  0  0  0  0  0  0  0  0  0  0  0
   -1.4975    0.0544   -0.6368 C   0  0  2  0  0  0  0  0  0  0  0  0
   -1.3548   -0.9301   -1.1232 H   0  0  0  0  0  0  0  0  0  0  0  0
    1.4700    1.9894   -0.1213 C   0  0  1  0  0  3  0  0  0  0  0  0
    2.1600    3.2005   -0.2715 C   0  0  0  0  0  0  0  0  0  0  0  0
    1.5909    4.1173   -0.4858 H   0  0  0  0  0  0  0  0  0  0  0  0
    3.5535    3.2296   -0.1325 C   0  0  0  0  0  0  0  0  0  0  0  0
    4.1089    4.1724   -0.2466 H   0  0  0  0  0  0  0  0  0  0  0  0
    4.2141    2.0337    0.1729 C   0  0  0  0  0  0  0  0  0  0  0  0
    5.3036    1.9967    0.3134 H   0  0  0  0  0  0  0  0  0  0  0  0
    3.4712    0.8548    0.2955 C   0  0  0  0  0  0  0  0  0  0  0  0
    3.9370   -0.1270    0.4748 H   0  0  0  0  0  0  0  0  0  0  0  0
   -2.9731    0.3056   -0.4280 C   0  0  0  0  0  0  0  0  0  0  0  0
   -3.4961    1.5742   -0.1042 C   0  0  0  0  0  0  0  0  0  0  0  0
   -2.8269    2.4428   -0.0180 H   0  0  0  0  0  0  0  0  0  0  0  0
   -4.8707    1.7415    0.1196 C   0  0  0  0  0  0  0  0  0  0  0  0
   -5.2660    2.7371    0.3720 H   0  0  0  0  0  0  0  0  0  0  0  0
   -5.7408    0.6438    0.0207 C   0  0  0  0  0  0  0  0  0  0  0  0
   -6.8194    0.7778    0.1930 H   0  0  0  0  0  0  0  0  0  0  0  0
   -5.2299   -0.6236   -0.3005 C   0  0  0  0  0  0  0  0  0  0  0  0
   -5.9058   -1.4884   -0.3808 H   0  0  0  0  0  0  0  0  0  0  0  0
   -3.8552   -0.7903   -0.5203 C   0  0  0  0  0  0  0  0  0  0  0  0
   -3.4462   -1.7849   -0.7604 H   0  0  0  0  0  0  0  0  0  0  0  0
   -1.3795   -0.6763    1.8105 C   0  0  0  0  0  0  0  0  0  0  0  0
   -0.6861   -0.6323    2.6691 H   0  0  0  0  0  0  0  0  0  0  0  0
   -1.5522   -1.7331    1.5356 H   0  0  0  0  0  0  0  0  0  0  0  0
   -2.3251   -0.1483    2.0424 H   0  0  0  0  0  0  0  0  0  0  0  0
  2  1  1  0  0  0  0
  2 31  1  0  0  0  0
  3 18  1  0  0  0  0
  4  5  1  6  0  0  0
  4 11  1  0  0  0  0
  4  1  1  0  0  0  0
  6  9  1  0  0  0  0
  6  4  1  0  0  0  0
  7  6  1  0  0  0  0
  8  6  1  0  0  0  0
  9 10  1  6  0  0  0
  9 20  1  0  0  0  0
  9  2  1  0  0  0  0
 11 12  1  1  0  0  0
 11  3  1  0  0  0  0
 12 14  2  0  0  0  0
 13 12  1  0  0  0  0
 14 16  1  0  0  0  0
 15 14  1  0  0  0  0
 16 18  2  0  0  0  0
 16 17  1  0  0  0  0
 18 19  1  0  0  0  0
 20 21  1  0  0  0  0
 21 22  1  0  0  0  0
 21 23  2  0  0  0  0
 23 24  1  0  0  0  0
 25 23  1  0  0  0  0
 25 26  1  0  0  0  0
 27 25  2  0  0  0  0
 28 27  1  0  0  0  0
 29 20  2  0  0  0  0
 29 27  1  0  0  0  0
 30 29  1  0  0  0  0
 31 34  1  0  0  0  0
 31 32  1  0  0  0  0
 33 31  1  0  0  0  0
M  END
