3,4
 OpenBabel05122313053D

 22 21  0  0  0  0  0  0  0  0999 V2000
   -0.6498   -2.4656   -0.4464 O   0  0  0  0  0  1  0  0  0  0  0  0
   -0.6498    2.4656    0.4463 O   0  0  0  0  0  1  0  0  0  0  0  0
   -0.6877   -1.3055   -0.1081 N   0  0  0  0  0  2  0  0  0  0  0  0
   -0.6877    1.3056    0.1079 N   0  0  0  0  0  2  0  0  0  0  0  0
   -2.0744   -0.7272    0.2773 C   0  0  0  0  0  0  0  0  0  0  0  0
   -2.1008   -0.7748    1.8154 C   0  0  0  0  0  0  0  0  0  0  0  0
   -1.8772   -1.8035    2.1587 H   0  0  0  0  0  0  0  0  0  0  0  0
   -3.1080   -0.5014    2.1839 H   0  0  0  0  0  0  0  0  0  0  0  0
   -1.3557   -0.0908    2.2663 H   0  0  0  0  0  0  0  0  0  0  0  0
   -3.1634   -1.6095   -0.3217 C   0  0  0  0  0  0  0  0  0  0  0  0
   -3.1279   -2.6166    0.1327 H   0  0  0  0  0  0  0  0  0  0  0  0
   -3.0477   -1.7315   -1.4143 H   0  0  0  0  0  0  0  0  0  0  0  0
   -4.1581   -1.1704   -0.1133 H   0  0  0  0  0  0  0  0  0  0  0  0
   -2.0745    0.7271   -0.2772 C   0  0  0  0  0  0  0  0  0  0  0  0
   -3.1634    1.6095    0.3221 C   0  0  0  0  0  0  0  0  0  0  0  0
   -3.1279    2.6166   -0.1323 H   0  0  0  0  0  0  0  0  0  0  0  0
   -3.0474    1.7314    1.4146 H   0  0  0  0  0  0  0  0  0  0  0  0
   -4.1581    1.1704    0.1139 H   0  0  0  0  0  0  0  0  0  0  0  0
   -2.1013    0.7748   -1.8153 C   0  0  0  0  0  0  0  0  0  0  0  0
   -3.1085    0.5014   -2.1836 H   0  0  0  0  0  0  0  0  0  0  0  0
   -1.3562    0.0909   -2.2664 H   0  0  0  0  0  0  0  0  0  0  0  0
   -1.8778    1.8035   -2.1587 H   0  0  0  0  0  0  0  0  0  0  0  0
  1  3  1  0  0  0  0
  3  5  1  0  0  0  0
  4  2  1  0  0  0  0
  5  6  1  0  0  0  0
  6  7  1  0  0  0  0
  6  8  1  0  0  0  0
  6  9  1  0  0  0  0
 10 13  1  0  0  0  0
 10 11  1  0  0  0  0
 10  5  1  0  0  0  0
 12 10  1  0  0  0  0
 14  4  1  0  0  0  0
 14  5  1  0  0  0  0
 14 15  1  0  0  0  0
 15 17  1  0  0  0  0
 16 15  1  0  0  0  0
 18 15  1  0  0  0  0
 19 14  1  0  0  0  0
 20 19  1  0  0  0  0
 21 19  1  0  0  0  0
 22 19  1  0  0  0  0
M  END
