1,2
 OpenBabel05122313053D

 74 73  0  0  0  0  0  0  0  0999 V2000
   -1.8906   -0.6552   -0.4656 N   0  0  0  0  0  2  0  0  0  0  0  0
    0.5721    1.0997   -0.3577 N   0  0  0  0  0  2  0  0  0  0  0  0
    2.1988   -1.6425   -1.2707 N   0  0  0  0  0  2  0  0  0  0  0  0
    1.7801    1.8796    1.4805 N   0  0  0  0  0  0  0  0  0  0  0  0
    2.0930    2.9103   -0.6056 N   0  0  0  0  0  0  0  0  0  0  0  0
   -4.1135   -1.3985   -0.8752 N   0  0  0  0  0  0  0  0  0  0  0  0
   -3.1533   -1.5906    1.2591 N   0  0  0  0  0  0  0  0  0  0  0  0
    4.2917   -1.4983   -0.2565 N   0  0  0  0  0  0  0  0  0  0  0  0
    2.6327   -2.7965    0.7980 N   0  0  0  0  0  0  0  0  0  0  0  0
   -1.4745   -0.7599   -1.8606 C   0  0  0  0  0  0  0  0  0  0  0  0
   -1.9159    0.0581   -2.4733 H   0  0  0  0  0  0  0  0  0  0  0  0
   -1.8445   -1.7223   -2.2848 H   0  0  0  0  0  0  0  0  0  0  0  0
    0.0629   -0.6838   -2.0495 C   0  0  0  0  0  0  0  0  0  0  0  0
    0.7619   -1.7253   -1.1476 C   0  0  0  0  0  0  0  0  0  0  0  0
    0.4240   -1.5695   -0.0973 H   0  0  0  0  0  0  0  0  0  0  0  0
    0.3699   -2.7265   -1.4527 H   0  0  0  0  0  0  0  0  0  0  0  0
    0.6035    0.7425   -1.7712 C   0  0  0  0  0  0  0  0  0  0  0  0
    1.6479    0.7981   -2.1466 H   0  0  0  0  0  0  0  0  0  0  0  0
   -0.0138    1.4483   -2.3706 H   0  0  0  0  0  0  0  0  0  0  0  0
    0.3671   -0.9918   -3.5239 C   0  0  0  0  0  0  0  0  0  0  0  0
    1.4629   -1.0567   -3.6699 H   0  0  0  0  0  0  0  0  0  0  0  0
   -0.0411   -0.2074   -4.1945 H   0  0  0  0  0  0  0  0  0  0  0  0
   -0.0764   -1.9632   -3.8263 H   0  0  0  0  0  0  0  0  0  0  0  0
    1.4513    1.9449    0.1455 C   0  0  0  0  0  3  0  0  0  0  0  0
   -3.0250   -1.1910   -0.0523 C   0  0  0  0  0  3  0  0  0  0  0  0
    2.9769   -1.9855   -0.2955 C   0  0  0  0  0  3  0  0  0  0  0  0
    1.8134    3.0792    2.3051 C   0  0  0  0  0  0  0  0  0  0  0  0
    1.7885    3.9801    1.6663 H   0  0  0  0  0  0  0  0  0  0  0  0
    2.7281    3.1124    2.9360 H   0  0  0  0  0  0  0  0  0  0  0  0
    0.9174    3.1013    2.9642 H   0  0  0  0  0  0  0  0  0  0  0  0
    1.6278    0.6290    2.2080 C   0  0  0  0  0  0  0  0  0  0  0  0
    1.6608   -0.2100    1.4909 H   0  0  0  0  0  0  0  0  0  0  0  0
    0.6600    0.5930    2.7538 H   0  0  0  0  0  0  0  0  0  0  0  0
    2.4617    0.5290    2.9360 H   0  0  0  0  0  0  0  0  0  0  0  0
    1.3664    3.6490   -1.6285 C   0  0  0  0  0  0  0  0  0  0  0  0
    0.2797    3.4481   -1.5405 H   0  0  0  0  0  0  0  0  0  0  0  0
    1.7030    3.3915   -2.6570 H   0  0  0  0  0  0  0  0  0  0  0  0
    1.5278    4.7389   -1.4771 H   0  0  0  0  0  0  0  0  0  0  0  0
    3.4622    3.3135   -0.3508 C   0  0  0  0  0  0  0  0  0  0  0  0
    3.9264    2.6132    0.3673 H   0  0  0  0  0  0  0  0  0  0  0  0
    3.5351    4.3455    0.0638 H   0  0  0  0  0  0  0  0  0  0  0  0
    4.0472    3.2894   -1.2967 H   0  0  0  0  0  0  0  0  0  0  0  0
   -5.0046   -2.5320   -0.7198 C   0  0  0  0  0  0  0  0  0  0  0  0
   -4.5626   -3.2573   -0.0125 H   0  0  0  0  0  0  0  0  0  0  0  0
   -5.1518   -3.0354   -1.7007 H   0  0  0  0  0  0  0  0  0  0  0  0
   -6.0100   -2.2376   -0.3395 H   0  0  0  0  0  0  0  0  0  0  0  0
   -4.4794   -0.4059   -1.8761 C   0  0  0  0  0  0  0  0  0  0  0  0
   -3.9032    0.5279   -1.7148 H   0  0  0  0  0  0  0  0  0  0  0  0
   -5.5597   -0.1635   -1.7721 H   0  0  0  0  0  0  0  0  0  0  0  0
   -4.3082   -0.7683   -2.9140 H   0  0  0  0  0  0  0  0  0  0  0  0
   -4.3246   -1.2227    2.0441 C   0  0  0  0  0  0  0  0  0  0  0  0
   -5.1202   -0.8395    1.3806 H   0  0  0  0  0  0  0  0  0  0  0  0
   -4.0532   -0.4121    2.7558 H   0  0  0  0  0  0  0  0  0  0  0  0
   -4.7199   -2.0917    2.6135 H   0  0  0  0  0  0  0  0  0  0  0  0
   -1.9700   -1.9325    2.0357 C   0  0  0  0  0  0  0  0  0  0  0  0
   -1.1717   -2.2707    1.3500 H   0  0  0  0  0  0  0  0  0  0  0  0
   -2.2252   -2.7520    2.7415 H   0  0  0  0  0  0  0  0  0  0  0  0
   -1.5967   -1.0574    2.6110 H   0  0  0  0  0  0  0  0  0  0  0  0
    5.3919   -2.4304   -0.0700 C   0  0  0  0  0  0  0  0  0  0  0  0
    5.0540   -3.3133    0.5018 H   0  0  0  0  0  0  0  0  0  0  0  0
    6.2275   -1.9530    0.4854 H   0  0  0  0  0  0  0  0  0  0  0  0
    5.7950   -2.7927   -1.0471 H   0  0  0  0  0  0  0  0  0  0  0  0
    4.6020   -0.3717   -1.1155 C   0  0  0  0  0  0  0  0  0  0  0  0
    3.7659    0.3507   -1.0953 H   0  0  0  0  0  0  0  0  0  0  0  0
    4.7552   -0.6707   -2.1791 H   0  0  0  0  0  0  0  0  0  0  0  0
    5.5281    0.1206   -0.7508 H   0  0  0  0  0  0  0  0  0  0  0  0
    1.7829   -3.9546    0.6257 C   0  0  0  0  0  0  0  0  0  0  0  0
    1.6554   -4.1711   -0.4496 H   0  0  0  0  0  0  0  0  0  0  0  0
    0.7718   -3.8279    1.0781 H   0  0  0  0  0  0  0  0  0  0  0  0
    2.2530   -4.8470    1.0998 H   0  0  0  0  0  0  0  0  0  0  0  0
    3.1416   -2.5744    2.1352 C   0  0  0  0  0  0  0  0  0  0  0  0
    3.7305   -1.6402    2.1536 H   0  0  0  0  0  0  0  0  0  0  0  0
    3.7934   -3.4092    2.4889 H   0  0  0  0  0  0  0  0  0  0  0  0
    2.3043   -2.4768    2.8637 H   0  0  0  0  0  0  0  0  0  0  0  0
  1 25  1  0  0  0  0
  2 24  1  0  0  0  0
  3 14  1  0  0  0  0
  3 26  1  0  0  0  0
  4 31  1  0  0  0  0
  4 27  1  0  0  0  0
  5 39  1  0  0  0  0
  5 24  1  0  0  0  0
  6 43  1  0  0  0  0
  6 25  1  0  0  0  0
  7 55  1  0  0  0  0
  7 51  1  0  0  0  0
  8 59  1  0  0  0  0
  9 71  1  0  0  0  0
 10  1  1  0  0  0  0
 11 10  1  0  0  0  0
 12 10  1  0  0  0  0
 13 10  1  0  0  0  0
 13 17  1  0  0  0  0
 13 14  1  0  0  0  0
 14 15  1  0  0  0  0
 16 14  1  0  0  0  0
 17  2  1  0  0  0  0
 18 17  1  0  0  0  0
 19 17  1  0  0  0  0
 20 13  1  0  0  0  0
 21 20  1  0  0  0  0
 22 20  1  0  0  0  0
 23 20  1  0  0  0  0
 24  4  1  0  0  0  0
 25  7  1  0  0  0  0
 26  8  1  0  0  0  0
 26  9  1  0  0  0  0
 27 29  1  0  0  0  0
 27 30  1  0  0  0  0
 28 27  1  0  0  0  0
 31 33  1  0  0  0  0
 31 34  1  0  0  0  0
 32 31  1  0  0  0  0
 35 36  1  0  0  0  0
 35 38  1  0  0  0  0
 35  5  1  0  0  0  0
 37 35  1  0  0  0  0
 39 41  1  0  0  0  0
 39 40  1  0  0  0  0
 42 39  1  0  0  0  0
 43 46  1  0  0  0  0
 43 44  1  0  0  0  0
 45 43  1  0  0  0  0
 47 49  1  0  0  0  0
 47 48  1  0  0  0  0
 47  6  1  0  0  0  0
 50 47  1  0  0  0  0
 51 54  1  0  0  0  0
 51 53  1  0  0  0  0
 52 51  1  0  0  0  0
 55 58  1  0  0  0  0
 55 57  1  0  0  0  0
 56 55  1  0  0  0  0
 59 61  1  0  0  0  0
 59 60  1  0  0  0  0
 62 59  1  0  0  0  0
 63 64  1  0  0  0  0
 63 66  1  0  0  0  0
 63  8  1  0  0  0  0
 65 63  1  0  0  0  0
 67  9  1  0  0  0  0
 67 69  1  0  0  0  0
 67 70  1  0  0  0  0
 68 67  1  0  0  0  0
 71 72  1  0  0  0  0
 71 73  1  0  0  0  0
 71 74  1  0  0  0  0
M  END
