1,2
 OpenBabel05122313053D

 46 47  0  0  0  0  0  0  0  0999 V2000
   -1.0762   -0.8257    0.2739 N   0  0  0  0  0  2  0  0  0  0  0  0
    1.0765   -0.8252   -0.2732 N   0  0  0  0  0  2  0  0  0  0  0  0
    0.0005   -2.9682   -0.0010 N   0  0  0  0  0  0  0  0  0  0  0  0
    0.0003   -1.6007   -0.0001 C   0  0  0  0  0  3  0  0  0  0  0  0
   -2.4318   -1.1194    0.0217 C   0  0  0  0  0  0  0  0  0  0  0  0
   -2.8791   -1.3604   -1.3070 C   0  0  0  0  0  0  0  0  0  0  0  0
   -4.2509   -1.5849   -1.5254 C   0  0  0  0  0  0  0  0  0  0  0  0
   -4.6031   -1.7697   -2.5529 H   0  0  0  0  0  0  0  0  0  0  0  0
   -5.1678   -1.5550   -0.4653 C   0  0  0  0  0  0  0  0  0  0  0  0
   -6.2383   -1.7244   -0.6563 H   0  0  0  0  0  0  0  0  0  0  0  0
   -4.7176   -1.2953    0.8368 C   0  0  0  0  0  0  0  0  0  0  0  0
   -5.4353   -1.2654    1.6720 H   0  0  0  0  0  0  0  0  0  0  0  0
   -3.3538   -1.0762    1.1025 C   0  0  0  0  0  0  0  0  0  0  0  0
   -1.8974   -1.3265   -2.4482 C   0  0  0  0  0  0  0  0  0  0  0  0
   -1.2750   -0.4057   -2.3969 H   0  0  0  0  0  0  0  0  0  0  0  0
   -2.4149   -1.3592   -3.4257 H   0  0  0  0  0  0  0  0  0  0  0  0
   -1.1846   -2.1776   -2.4131 H   0  0  0  0  0  0  0  0  0  0  0  0
   -2.8575   -0.8458    2.5061 C   0  0  0  0  0  0  0  0  0  0  0  0
   -3.6950   -0.6561    3.2045 H   0  0  0  0  0  0  0  0  0  0  0  0
   -2.1454    0.0017    2.5524 H   0  0  0  0  0  0  0  0  0  0  0  0
   -2.2945   -1.7264    2.8883 H   0  0  0  0  0  0  0  0  0  0  0  0
    2.4322   -1.1187   -0.0216 C   0  0  0  0  0  0  0  0  0  0  0  0
    2.8797   -1.3611    1.3068 C   0  0  0  0  0  0  0  0  0  0  0  0
    4.2515   -1.5854    1.5250 C   0  0  0  0  0  0  0  0  0  0  0  0
    4.6038   -1.7713    2.5523 H   0  0  0  0  0  0  0  0  0  0  0  0
    5.1685   -1.5539    0.4649 C   0  0  0  0  0  0  0  0  0  0  0  0
    6.2390   -1.7231    0.6556 H   0  0  0  0  0  0  0  0  0  0  0  0
    4.7181   -1.2927   -0.8369 C   0  0  0  0  0  0  0  0  0  0  0  0
    5.4358   -1.2615   -1.6720 H   0  0  0  0  0  0  0  0  0  0  0  0
    3.3542   -1.0739   -1.1024 C   0  0  0  0  0  0  0  0  0  0  0  0
    1.8980   -1.3288    2.4480 C   0  0  0  0  0  0  0  0  0  0  0  0
    1.1854   -2.1802    2.4120 H   0  0  0  0  0  0  0  0  0  0  0  0
    1.2753   -0.4083    2.3978 H   0  0  0  0  0  0  0  0  0  0  0  0
    2.4155   -1.3626    3.4255 H   0  0  0  0  0  0  0  0  0  0  0  0
    2.8580   -0.8425   -2.5059 C   0  0  0  0  0  0  0  0  0  0  0  0
    2.1394   -0.0003   -2.5501 H   0  0  0  0  0  0  0  0  0  0  0  0
    2.3026   -1.7263   -2.8918 H   0  0  0  0  0  0  0  0  0  0  0  0
    3.6949   -0.6442   -3.2025 H   0  0  0  0  0  0  0  0  0  0  0  0
   -1.0625   -3.7358    0.6280 C   0  0  0  0  0  0  0  0  0  0  0  0
   -1.5939   -3.1175    1.3708 H   0  0  0  0  0  0  0  0  0  0  0  0
   -0.6184   -4.6066    1.1538 H   0  0  0  0  0  0  0  0  0  0  0  0
   -1.8078   -4.1083   -0.1086 H   0  0  0  0  0  0  0  0  0  0  0  0
    1.0641   -3.7344   -0.6308 C   0  0  0  0  0  0  0  0  0  0  0  0
    1.5936   -3.1155   -1.3745 H   0  0  0  0  0  0  0  0  0  0  0  0
    0.6206   -4.6060   -1.1558 H   0  0  0  0  0  0  0  0  0  0  0  0
    1.8108   -4.1055    0.1051 H   0  0  0  0  0  0  0  0  0  0  0  0
  2 22  1  0  0  0  0
  2  4  1  0  0  0  0
  3  4  1  0  0  0  0
  3 39  1  0  0  0  0
  4  1  1  0  0  0  0
  5  1  1  0  0  0  0
  5 13  1  0  0  0  0
  6  5  2  0  0  0  0
  7  6  1  0  0  0  0
  7  9  2  0  0  0  0
  8  7  1  0  0  0  0
  9 11  1  0  0  0  0
 10  9  1  0  0  0  0
 11 13  2  0  0  0  0
 11 12  1  0  0  0  0
 13 18  1  0  0  0  0
 14 17  1  0  0  0  0
 14 15  1  0  0  0  0
 14  6  1  0  0  0  0
 16 14  1  0  0  0  0
 18 20  1  0  0  0  0
 18 21  1  0  0  0  0
 18 19  1  0  0  0  0
 22 23  1  0  0  0  0
 23 24  2  0  0  0  0
 23 31  1  0  0  0  0
 24 25  1  0  0  0  0
 26 27  1  0  0  0  0
 26 24  1  0  0  0  0
 28 26  2  0  0  0  0
 29 28  1  0  0  0  0
 30 28  1  0  0  0  0
 30 22  2  0  0  0  0
 31 34  1  0  0  0  0
 32 31  1  0  0  0  0
 33 31  1  0  0  0  0
 35 30  1  0  0  0  0
 36 35  1  0  0  0  0
 37 35  1  0  0  0  0
 38 35  1  0  0  0  0
 39 41  1  0  0  0  0
 39 40  1  0  0  0  0
 42 39  1  0  0  0  0
 43  3  1  0  0  0  0
 43 46  1  0  0  0  0
 44 43  1  0  0  0  0
 45 43  1  0  0  0  0
M  END
