1,2
 OpenBabel05122313053D

 47 48  0  0  1  0  0  0  0  0999 V2000
    2.2290    0.0856   -0.6338 N   0  0  0  0  0  2  0  0  0  0  0  0
   -0.5393    0.0111   -0.6994 N   0  0  0  0  0  0  0  0  0  0  0  0
    3.5560    0.0987   -0.3908 C   0  0  0  0  0  3  0  0  0  0  0  0
    3.9291   -0.7979    0.1366 H   0  0  0  0  0  0  0  0  0  0  0  0
    4.3652    1.1765   -0.7664 C   0  0  0  0  0  0  0  0  0  0  0  0
    5.4431    1.1524   -0.5510 H   0  0  0  0  0  0  0  0  0  0  0  0
    3.7722    2.2790   -1.4010 C   0  0  0  0  0  0  0  0  0  0  0  0
    4.3759    3.1509   -1.6945 H   0  0  0  0  0  0  0  0  0  0  0  0
    2.3927    2.2568   -1.6499 C   0  0  0  0  0  0  0  0  0  0  0  0
    1.8930    3.1057   -2.1406 H   0  0  0  0  0  0  0  0  0  0  0  0
    1.6466    1.1341   -1.2595 C   0  0  0  0  0  0  0  0  0  0  0  0
    0.1613    1.0244   -1.5688 C   0  0  1  0  0  0  0  0  0  0  0  0
   -0.3083    2.0115   -1.3751 H   0  0  0  0  0  0  0  0  0  0  0  0
   -0.0453    0.6556   -3.0448 C   0  0  0  0  0  0  0  0  0  0  0  0
   -1.1231    0.6551   -3.3045 H   0  0  0  0  0  0  0  0  0  0  0  0
    0.3792   -0.3494   -3.2476 H   0  0  0  0  0  0  0  0  0  0  0  0
    0.4679    1.3791   -3.7068 H   0  0  0  0  0  0  0  0  0  0  0  0
   -1.6188    0.5303    0.1207 C   0  0  0  0  0  0  0  0  0  0  0  0
   -1.3278    1.3804    1.2205 C   0  0  0  0  0  0  0  0  0  0  0  0
   -2.4046    1.9093    1.9542 C   0  0  0  0  0  0  0  0  0  0  0  0
   -2.1921    2.5749    2.8047 H   0  0  0  0  0  0  0  0  0  0  0  0
   -3.7304    1.5893    1.6422 C   0  0  0  0  0  0  0  0  0  0  0  0
   -4.5577    2.0121    2.2314 H   0  0  0  0  0  0  0  0  0  0  0  0
   -3.9945    0.7103    0.5882 C   0  0  0  0  0  0  0  0  0  0  0  0
   -5.0360    0.4396    0.3576 H   0  0  0  0  0  0  0  0  0  0  0  0
   -2.9566    0.1649   -0.1925 C   0  0  0  0  0  0  0  0  0  0  0  0
    0.0944    1.6947    1.6670 C   0  0  0  0  0  0  0  0  0  0  0  0
    0.7841    1.1098    1.0309 H   0  0  0  0  0  0  0  0  0  0  0  0
    0.3459    1.1918    3.0987 C   0  0  0  0  0  0  0  0  0  0  0  0
    0.1463    0.1039    3.1671 H   0  0  0  0  0  0  0  0  0  0  0  0
   -0.2916    1.7138    3.8418 H   0  0  0  0  0  0  0  0  0  0  0  0
    1.4049    1.3580    3.3827 H   0  0  0  0  0  0  0  0  0  0  0  0
    0.4396    3.1835    1.5093 C   0  0  0  0  0  0  0  0  0  0  0  0
    1.4972    3.3689    1.7872 H   0  0  0  0  0  0  0  0  0  0  0  0
   -0.1960    3.8210    2.1587 H   0  0  0  0  0  0  0  0  0  0  0  0
    0.2978    3.5310    0.4652 H   0  0  0  0  0  0  0  0  0  0  0  0
   -3.3386   -0.7837   -1.3288 C   0  0  0  0  0  0  0  0  0  0  0  0
   -2.4216   -1.2028   -1.7993 H   0  0  0  0  0  0  0  0  0  0  0  0
   -4.1251   -2.0008   -0.8127 C   0  0  0  0  0  0  0  0  0  0  0  0
   -4.3366   -2.7074   -1.6408 H   0  0  0  0  0  0  0  0  0  0  0  0
   -5.0982   -1.6982   -0.3754 H   0  0  0  0  0  0  0  0  0  0  0  0
   -3.5525   -2.5388   -0.0322 H   0  0  0  0  0  0  0  0  0  0  0  0
   -4.0977   -0.0435   -2.4440 C   0  0  0  0  0  0  0  0  0  0  0  0
   -3.5098    0.8093   -2.8408 H   0  0  0  0  0  0  0  0  0  0  0  0
   -5.0566    0.3665   -2.0665 H   0  0  0  0  0  0  0  0  0  0  0  0
   -4.3308   -0.7270   -3.2859 H   0  0  0  0  0  0  0  0  0  0  0  0
   -0.9639   -0.6720   -1.3385 H   0  0  0  0  0  0  0  0  0  0  0  0
  1  3  1  0  0  0  0
  2 18  1  0  0  0  0
  3  4  1  0  0  0  0
  5  6  1  0  0  0  0
  5  3  1  0  0  0  0
  7  5  2  0  0  0  0
  8  7  1  0  0  0  0
  9  7  1  0  0  0  0
  9 11  2  0  0  0  0
 10  9  1  0  0  0  0
 11  1  1  0  0  0  0
 12 13  1  1  0  0  0
 12 11  1  0  0  0  0
 12  2  1  0  0  0  0
 14 12  1  0  0  0  0
 15 14  1  0  0  0  0
 16 14  1  0  0  0  0
 17 14  1  0  0  0  0
 18 19  1  0  0  0  0
 19 27  1  0  0  0  0
 19 20  2  0  0  0  0
 20 21  1  0  0  0  0
 22 20  1  0  0  0  0
 22 23  1  0  0  0  0
 24 22  2  0  0  0  0
 25 24  1  0  0  0  0
 26 18  2  0  0  0  0
 26 24  1  0  0  0  0
 27 29  1  0  0  0  0
 28 27  1  0  0  0  0
 29 30  1  0  0  0  0
 29 32  1  0  0  0  0
 29 31  1  0  0  0  0
 33 27  1  0  0  0  0
 33 34  1  0  0  0  0
 33 35  1  0  0  0  0
 36 33  1  0  0  0  0
 37 39  1  0  0  0  0
 37 26  1  0  0  0  0
 38 37  1  0  0  0  0
 39 41  1  0  0  0  0
 39 42  1  0  0  0  0
 40 39  1  0  0  0  0
 43 45  1  0  0  0  0
 43 37  1  0  0  0  0
 44 43  1  0  0  0  0
 46 43  1  0  0  0  0
 47  2  1  0  0  0  0
M  END
