3,4
 OpenBabel05122313053D

 31 33  0  0  0  0  0  0  0  0999 V2000
    2.2389    4.5535   -0.1829 Cl  0  0  0  0  0  0  0  0  0  0  0  0
    4.0101   -3.0432   -0.1100 Cl  0  0  0  0  0  0  0  0  0  0  0  0
   -0.7953    1.2345    0.4264 N   0  0  0  0  0  2  0  0  0  0  0  0
   -0.1460   -1.3303    0.4395 N   0  0  0  0  0  2  0  0  0  0  0  0
   -1.1350    2.5156    0.6883 C   0  0  0  0  0  0  0  0  0  0  0  0
   -0.1854    3.5539    0.4959 C   0  0  0  0  0  0  0  0  0  0  0  0
   -0.4860    4.5937    0.6799 H   0  0  0  0  0  0  0  0  0  0  0  0
    1.1090    3.2663    0.0862 C   0  0  0  0  0  0  0  0  0  0  0  0
    1.5168    1.9082   -0.0642 C   0  0  0  0  0  0  0  0  0  0  0  0
    2.8418    1.4812   -0.3727 C   0  0  0  0  0  0  0  0  0  0  0  0
    3.5870    2.2598   -0.5883 H   0  0  0  0  0  0  0  0  0  0  0  0
    3.2308    0.1535   -0.3867 C   0  0  0  0  0  0  0  0  0  0  0  0
    2.2433   -0.8668   -0.0595 C   0  0  0  0  0  0  0  0  0  0  0  0
    2.4694   -2.2697    0.1304 C   0  0  0  0  0  0  0  0  0  0  0  0
    1.4425   -3.0973    0.5724 C   0  0  0  0  0  0  0  0  0  0  0  0
    1.6577   -4.1527    0.7848 H   0  0  0  0  0  0  0  0  0  0  0  0
    0.1269   -2.6137    0.7501 C   0  0  0  0  0  0  0  0  0  0  0  0
    0.8788   -0.4660    0.1409 C   0  0  0  0  0  0  0  0  0  0  0  0
    0.5114    0.9290    0.1375 C   0  0  0  0  0  0  0  0  0  0  0  0
   -2.4980    2.8233    1.2087 C   0  0  0  0  0  0  0  0  0  0  0  0
   -3.2600    2.5420    0.4475 H   0  0  0  0  0  0  0  0  0  0  0  0
   -2.5900    3.8888    1.4855 H   0  0  0  0  0  0  0  0  0  0  0  0
   -2.7166    2.1872    2.0904 H   0  0  0  0  0  0  0  0  0  0  0  0
    4.6686   -0.1482   -0.7271 C   0  0  0  0  0  0  0  0  0  0  0  0
    5.1913    0.7905   -0.9900 H   0  0  0  0  0  0  0  0  0  0  0  0
    4.7549   -0.8446   -1.5836 H   0  0  0  0  0  0  0  0  0  0  0  0
    5.2086   -0.6182    0.1179 H   0  0  0  0  0  0  0  0  0  0  0  0
   -0.9456   -3.4904    1.3007 C   0  0  0  0  0  0  0  0  0  0  0  0
   -1.4442   -2.9846    2.1522 H   0  0  0  0  0  0  0  0  0  0  0  0
   -0.5371   -4.4626    1.6296 H   0  0  0  0  0  0  0  0  0  0  0  0
   -1.7406   -3.6308    0.5342 H   0  0  0  0  0  0  0  0  0  0  0  0
  1  8  1  0  0  0  0
  2 14  1  0  0  0  0
  3  5  1  0  0  0  0
  4 17  1  0  0  0  0
  5 20  1  0  0  0  0
  6  7  1  0  0  0  0
  6  5  2  0  0  0  0
  8  6  1  0  0  0  0
  9  8  2  0  0  0  0
  9 19  1  0  0  0  0
 10  9  1  0  0  0  0
 11 10  1  0  0  0  0
 12 10  2  0  0  0  0
 12 13  1  0  0  0  0
 13 14  2  0  0  0  0
 13 18  1  0  0  0  0
 14 15  1  0  0  0  0
 15 17  2  0  0  0  0
 15 16  1  0  0  0  0
 17 28  1  0  0  0  0
 18  4  1  0  0  0  0
 19 18  2  0  0  0  0
 19  3  1  0  0  0  0
 20 22  1  0  0  0  0
 20 23  1  0  0  0  0
 21 20  1  0  0  0  0
 24 12  1  0  0  0  0
 24 27  1  0  0  0  0
 25 24  1  0  0  0  0
 26 24  1  0  0  0  0
 28 30  1  0  0  0  0
 28 29  1  0  0  0  0
 31 28  1  0  0  0  0
M  END
