1,2
 OpenBabel05122313053D

 35 36  0  0  1  0  0  0  0  0999 V2000
    2.0874    0.4075    0.1008 N   0  0  0  0  0  2  0  0  0  0  0  0
   -0.5950    0.6114   -0.2840 N   0  0  0  0  0  0  0  0  0  0  0  0
    3.4166    0.2157   -0.0107 C   0  0  0  0  0  3  0  0  0  0  0  0
    3.7173   -0.8453   -0.0847 H   0  0  0  0  0  0  0  0  0  0  0  0
    4.3185    1.2860   -0.0288 C   0  0  0  0  0  0  0  0  0  0  0  0
    5.3971    1.0919   -0.1166 H   0  0  0  0  0  0  0  0  0  0  0  0
    3.8156    2.5915    0.0571 C   0  0  0  0  0  0  0  0  0  0  0  0
    4.4928    3.4584    0.0332 H   0  0  0  0  0  0  0  0  0  0  0  0
    2.4300    2.7829    0.1737 C   0  0  0  0  0  0  0  0  0  0  0  0
    2.0136    3.7964    0.2464 H   0  0  0  0  0  0  0  0  0  0  0  0
    1.5854    1.6625    0.2057 C   0  0  0  0  0  0  0  0  0  0  0  0
    0.0812    1.7532    0.4221 C   0  0  1  0  0  0  0  0  0  0  0  0
   -0.0810    1.5722    1.5041 H   0  0  0  0  0  0  0  0  0  0  0  0
   -0.5381    3.1014    0.0543 C   0  0  0  0  0  0  0  0  0  0  0  0
   -1.6377    3.0572    0.1764 H   0  0  0  0  0  0  0  0  0  0  0  0
   -0.3077    3.3824   -0.9939 H   0  0  0  0  0  0  0  0  0  0  0  0
   -0.1644    3.9072    0.7149 H   0  0  0  0  0  0  0  0  0  0  0  0
   -2.0064    0.4556   -0.0147 C   0  0  0  0  0  0  0  0  0  0  0  0
   -2.4631    0.1036    1.2812 C   0  0  0  0  0  0  0  0  0  0  0  0
   -3.8512   -0.0462    1.4684 C   0  0  0  0  0  0  0  0  0  0  0  0
   -4.2167   -0.3257    2.4687 H   0  0  0  0  0  0  0  0  0  0  0  0
   -4.7586    0.1227    0.4166 C   0  0  0  0  0  0  0  0  0  0  0  0
   -5.8372   -0.0067    0.5901 H   0  0  0  0  0  0  0  0  0  0  0  0
   -4.2826    0.4304   -0.8636 C   0  0  0  0  0  0  0  0  0  0  0  0
   -4.9850    0.5404   -1.7042 H   0  0  0  0  0  0  0  0  0  0  0  0
   -2.9075    0.6009   -1.1007 C   0  0  0  0  0  0  0  0  0  0  0  0
   -1.5241   -0.1730    2.4269 C   0  0  0  0  0  0  0  0  0  0  0  0
   -0.5962   -0.6771    2.0698 H   0  0  0  0  0  0  0  0  0  0  0  0
   -2.0090   -0.8315    3.1726 H   0  0  0  0  0  0  0  0  0  0  0  0
   -1.2215    0.7512    2.9655 H   0  0  0  0  0  0  0  0  0  0  0  0
   -2.4032    0.9080   -2.4904 C   0  0  0  0  0  0  0  0  0  0  0  0
   -3.2398    0.9445   -3.2128 H   0  0  0  0  0  0  0  0  0  0  0  0
   -1.6946    0.1312   -2.8545 H   0  0  0  0  0  0  0  0  0  0  0  0
   -1.8816    1.8881   -2.5468 H   0  0  0  0  0  0  0  0  0  0  0  0
   -0.4863    0.7770   -1.2943 H   0  0  0  0  0  0  0  0  0  0  0  0
  1 11  1  0  0  0  0
  2 18  1  0  0  0  0
  2 12  1  0  0  0  0
  3  1  1  0  0  0  0
  4  3  1  0  0  0  0
  5  3  1  0  0  0  0
  5  7  2  0  0  0  0
  6  5  1  0  0  0  0
  7  9  1  0  0  0  0
  8  7  1  0  0  0  0
  9 11  2  0  0  0  0
  9 10  1  0  0  0  0
 11 12  1  0  0  0  0
 12 13  1  1  0  0  0
 14 15  1  0  0  0  0
 14 12  1  0  0  0  0
 14 17  1  0  0  0  0
 16 14  1  0  0  0  0
 18 19  1  0  0  0  0
 19 20  2  0  0  0  0
 19 27  1  0  0  0  0
 20 21  1  0  0  0  0
 22 23  1  0  0  0  0
 22 20  1  0  0  0  0
 24 22  2  0  0  0  0
 25 24  1  0  0  0  0
 26 24  1  0  0  0  0
 26 18  2  0  0  0  0
 27 30  1  0  0  0  0
 27 29  1  0  0  0  0
 28 27  1  0  0  0  0
 31 26  1  0  0  0  0
 32 31  1  0  0  0  0
 33 31  1  0  0  0  0
 34 31  1  0  0  0  0
 35  2  1  0  0  0  0
M  END
