1,3
 OpenBabel05122313053D

 38 40  0  0  0  0  0  0  0  0999 V2000
   -3.3247    0.3069   -0.6710 N   0  0  0  0  0  2  0  0  0  0  0  0
   -1.7633   -0.7127   -2.1121 N   0  0  0  0  0  2  0  0  0  0  0  0
   -0.8857   -0.0602   -1.4177 N   0  0  0  0  0  2  0  0  0  0  0  0
    4.4660   -1.5982   -1.8671 N   0  0  0  0  0  0  0  0  0  0  0  0
    4.6430   -2.4366   -2.4263 H   0  0  0  0  0  0  0  0  0  0  0  0
   -4.5972    0.5349   -0.2908 C   0  0  0  0  0  3  0  0  0  0  0  0
   -4.7120    1.1820    0.5945 H   0  0  0  0  0  0  0  0  0  0  0  0
   -5.6785   -0.0465   -0.9634 C   0  0  0  0  0  0  0  0  0  0  0  0
   -6.7016    0.1636   -0.6221 H   0  0  0  0  0  0  0  0  0  0  0  0
   -5.4310   -0.8985   -2.0556 C   0  0  0  0  0  0  0  0  0  0  0  0
   -6.2647   -1.3748   -2.5921 H   0  0  0  0  0  0  0  0  0  0  0  0
   -4.1140   -1.1340   -2.4533 C   0  0  0  0  0  0  0  0  0  0  0  0
   -3.8558   -1.7877   -3.2966 H   0  0  0  0  0  0  0  0  0  0  0  0
   -3.0670   -0.5084   -1.7426 C   0  0  0  0  0  0  0  0  0  0  0  0
    0.4488   -0.3849   -1.6459 C   0  0  0  0  0  0  0  0  0  0  0  0
    1.4857    0.5114   -1.2772 C   0  0  0  0  0  0  0  0  0  0  0  0
    1.2391    1.5282   -0.9534 H   0  0  0  0  0  0  0  0  0  0  0  0
    2.8157    0.1407   -1.3737 C   0  0  0  0  0  0  0  0  0  0  0  0
    3.6015    0.8593   -1.1078 H   0  0  0  0  0  0  0  0  0  0  0  0
    3.1725   -1.1586   -1.8389 C   0  0  0  0  0  0  0  0  0  0  0  0
    2.1310   -2.0178   -2.3100 C   0  0  0  0  0  0  0  0  0  0  0  0
    2.3908   -3.0131   -2.7032 H   0  0  0  0  0  0  0  0  0  0  0  0
    0.8041   -1.6398   -2.2212 C   0  0  0  0  0  0  0  0  0  0  0  0
   -0.0007   -2.3151   -2.5400 H   0  0  0  0  0  0  0  0  0  0  0  0
    5.5873   -1.0670   -1.1937 C   0  0  0  0  0  0  0  0  0  0  0  0
    5.4828   -0.4989    0.0943 C   0  0  0  0  0  0  0  0  0  0  0  0
    4.5134   -0.4701    0.6130 H   0  0  0  0  0  0  0  0  0  0  0  0
    6.6287   -0.0124    0.7339 C   0  0  0  0  0  0  0  0  0  0  0  0
    6.5328    0.4209    1.7417 H   0  0  0  0  0  0  0  0  0  0  0  0
    7.9030   -0.0871    0.1341 C   0  0  0  0  0  0  0  0  0  0  0  0
    7.9909   -0.6852   -1.1426 C   0  0  0  0  0  0  0  0  0  0  0  0
    8.9725   -0.7700   -1.6341 H   0  0  0  0  0  0  0  0  0  0  0  0
    6.8569   -1.1654   -1.8022 C   0  0  0  0  0  0  0  0  0  0  0  0
    6.9488   -1.6137   -2.8037 H   0  0  0  0  0  0  0  0  0  0  0  0
    9.1292    0.4527    0.8200 C   0  0  0  0  0  0  0  0  0  0  0  0
    9.4748    1.3895    0.3330 H   0  0  0  0  0  0  0  0  0  0  0  0
    9.9727   -0.2646    0.7664 H   0  0  0  0  0  0  0  0  0  0  0  0
    8.9370    0.6820    1.8853 H   0  0  0  0  0  0  0  0  0  0  0  0
  1  6  1  0  0  0  0
  2 14  1  0  0  0  0
  2  3  1  0  0  0  0
  4 20  1  0  0  0  0
  4 25  1  0  0  0  0
  5  4  1  0  0  0  0
  6  7  1  0  0  0  0
  8  9  1  0  0  0  0
  8  6  1  0  0  0  0
 10  8  2  0  0  0  0
 11 10  1  0  0  0  0
 12 10  1  0  0  0  0
 12 14  2  0  0  0  0
 13 12  1  0  0  0  0
 14  1  1  0  0  0  0
 15  3  1  0  0  0  0
 15 16  1  0  0  0  0
 16 17  1  0  0  0  0
 18 16  2  0  0  0  0
 18 19  1  0  0  0  0
 20 18  1  0  0  0  0
 21 23  1  0  0  0  0
 21 20  2  0  0  0  0
 22 21  1  0  0  0  0
 23 15  2  0  0  0  0
 24 23  1  0  0  0  0
 25 26  1  0  0  0  0
 26 27  1  0  0  0  0
 26 28  2  0  0  0  0
 28 29  1  0  0  0  0
 30 28  1  0  0  0  0
 30 35  1  0  0  0  0
 31 30  2  0  0  0  0
 32 31  1  0  0  0  0
 33 25  2  0  0  0  0
 33 31  1  0  0  0  0
 34 33  1  0  0  0  0
 35 38  1  0  0  0  0
 36 35  1  0  0  0  0
 37 35  1  0  0  0  0
M  END
