1,17
 OpenBabel05122313053D

 28 30  0  0  0  0  0  0  0  0999 V2000
   -0.6083   -1.4524   -0.0297 N   0  0  0  0  0  2  0  0  0  0  0  0
   -0.8112   -2.7894   -0.1174 C   0  0  0  0  0  3  0  0  0  0  0  0
   -1.8226   -3.2126   -0.1144 H   0  0  0  0  0  0  0  0  0  0  0  0
    0.4137   -3.4968   -0.2146 C   0  0  0  0  0  0  0  0  0  0  0  0
    0.5261   -4.5831   -0.3038 H   0  0  0  0  0  0  0  0  0  0  0  0
    1.4188   -2.5331   -0.1854 C   0  0  0  0  0  0  0  0  0  0  0  0
    2.5000   -2.6897   -0.2576 H   0  0  0  0  0  0  0  0  0  0  0  0
    0.7767   -1.2546   -0.0601 C   0  0  0  0  0  0  0  0  0  0  0  0
    1.4226    0.0001   -0.0002 C   0  0  0  0  0  0  0  0  0  0  0  0
    2.9151    0.0001    0.0004 C   0  0  0  0  0  0  0  0  0  0  0  0
    3.6314   -0.6001    1.0583 C   0  0  0  0  0  0  0  0  0  0  0  0
    3.0757   -1.0597    1.8890 H   0  0  0  0  0  0  0  0  0  0  0  0
    5.0336   -0.5943    1.0601 C   0  0  0  0  0  0  0  0  0  0  0  0
    5.5792   -1.0559    1.8970 H   0  0  0  0  0  0  0  0  0  0  0  0
    5.7388    0.0001    0.0015 C   0  0  0  0  0  0  0  0  0  0  0  0
    6.8393    0.0001    0.0020 H   0  0  0  0  0  0  0  0  0  0  0  0
   -0.6085    1.4522    0.0274 N   0  0  0  0  0  0  0  0  0  0  0  0
   -0.8118    2.7893    0.1138 C   0  0  0  0  0  3  0  0  0  0  0  0
   -1.8232    3.2123    0.1097 H   0  0  0  0  0  0  0  0  0  0  0  0
    0.4129    3.4969    0.2112 C   0  0  0  0  0  0  0  0  0  0  0  0
    0.5251    4.5833    0.2994 H   0  0  0  0  0  0  0  0  0  0  0  0
    1.4182    2.5333    0.1836 C   0  0  0  0  0  0  0  0  0  0  0  0
    2.4993    2.6902    0.2564 H   0  0  0  0  0  0  0  0  0  0  0  0
    0.7764    1.2547    0.0589 C   0  0  0  0  0  0  0  0  0  0  0  0
    3.6323    0.6003   -1.0570 C   0  0  0  0  0  0  0  0  0  0  0  0
    3.0773    1.0599   -1.8882 H   0  0  0  0  0  0  0  0  0  0  0  0
    5.0344    0.5945   -1.0576 C   0  0  0  0  0  0  0  0  0  0  0  0
    5.5808    1.0561   -1.8941 H   0  0  0  0  0  0  0  0  0  0  0  0
  2  3  1  0  0  0  0
  2  1  1  0  0  0  0
  4  6  2  0  0  0  0
  4  2  1  0  0  0  0
  5  4  1  0  0  0  0
  6  8  1  0  0  0  0
  7  6  1  0  0  0  0
  8  1  1  0  0  0  0
  8  9  2  0  0  0  0
  9 10  1  0  0  0  0
  9 24  1  0  0  0  0
 10 11  1  0  0  0  0
 11 13  2  0  0  0  0
 11 12  1  0  0  0  0
 13 14  1  0  0  0  0
 15 16  1  0  0  0  0
 15 13  1  0  0  0  0
 17 24  2  0  0  0  0
 17 18  1  0  0  0  0
 18 20  1  0  0  0  0
 19 18  1  0  0  0  0
 20 21  1  0  0  0  0
 22 20  2  0  0  0  0
 22 23  1  0  0  0  0
 24 22  1  0  0  0  0
 25 10  2  0  0  0  0
 26 25  1  0  0  0  0
 27 25  1  0  0  0  0
 27 15  2  0  0  0  0
 28 27  1  0  0  0  0
M  END
