4,5
 OpenBabel05122313053D

 30 31  0  0  1  0  0  0  0  0999 V2000
    0.3873    2.7594    0.0002 O   0  0  0  0  0  0  0  0  0  0  0  0
    3.8683    0.6947    0.0001 N   0  0  0  0  0  0  0  0  0  0  0  0
    1.3298    0.3346    0.0000 N   0  0  0  0  0  0  0  0  0  0  0  0
    0.0290    0.4299    0.0001 N   0  0  0  0  0  2  0  0  0  0  0  0
   -2.6017    0.8204   -0.0001 N   0  0  0  0  0  2  0  0  0  0  0  0
    5.1673    1.0864   -0.0001 C   0  0  2  0  0  3  0  0  0  0  0  0
    6.1466    0.0926   -0.0003 C   0  0  0  0  0  0  0  0  0  0  0  0
    5.7556   -1.2694   -0.0003 C   0  0  0  0  0  0  0  0  0  0  0  0
    4.4109   -1.6256   -0.0002 C   0  0  0  0  0  0  0  0  0  0  0  0
    3.4268   -0.6080   -0.0000 C   0  0  0  0  0  0  0  0  0  0  0  0
    2.0035   -0.7957   -0.0000 C   0  0  0  0  0  0  0  0  0  0  0  0
   -0.3732    1.7988    0.0001 C   0  0  0  0  0  0  0  0  0  0  0  0
   -1.8574    1.9544   -0.0000 C   0  0  1  0  0  3  0  0  0  0  0  0
   -2.4389    3.2285    0.0000 C   0  0  0  0  0  0  0  0  0  0  0  0
   -3.8345    3.3348   -0.0001 C   0  0  0  0  0  0  0  0  0  0  0  0
   -4.5949    2.1548   -0.0002 C   0  0  0  0  0  0  0  0  0  0  0  0
   -3.9494    0.9124   -0.0002 C   0  0  0  0  0  0  0  0  0  0  0  0
    5.4443    2.5581    0.0003 C   0  0  0  0  0  0  0  0  0  0  0  0
    4.9973    3.0440   -0.8917 H   0  0  0  0  0  0  0  0  0  0  0  0
    6.5309    2.7547   -0.0004 H   0  0  0  0  0  0  0  0  0  0  0  0
    4.9986    3.0432    0.8933 H   0  0  0  0  0  0  0  0  0  0  0  0
    3.0593    1.3588    0.0001 H   0  0  0  0  0  0  0  0  0  0  0  0
    7.2060    0.3801   -0.0005 H   0  0  0  0  0  0  0  0  0  0  0  0
    6.5279   -2.0532   -0.0005 H   0  0  0  0  0  0  0  0  0  0  0  0
    4.0854   -2.6748   -0.0002 H   0  0  0  0  0  0  0  0  0  0  0  0
    1.5246   -1.7964    0.0000 H   0  0  0  0  0  0  0  0  0  0  0  0
   -1.7656    4.0973    0.0001 H   0  0  0  0  0  0  0  0  0  0  0  0
   -4.3232    4.3205   -0.0001 H   0  0  0  0  0  0  0  0  0  0  0  0
   -5.6941    2.1836   -0.0003 H   0  0  0  0  0  0  0  0  0  0  0  0
   -4.4738   -0.0596   -0.0003 H   0  0  0  0  0  0  0  0  0  0  0  0
  2 22  1  0  0  0  0
  3  4  1  0  0  0  0
  4 12  1  0  0  0  0
  5 13  1  0  0  0  0
  6  2  1  0  0  0  0
  6 18  1  1  0  0  0
  7  6  1  0  0  0  0
  8  7  2  0  0  0  0
  8  9  1  0  0  0  0
  9 10  2  0  0  0  0
 10 11  1  0  0  0  0
 10  2  1  0  0  0  0
 11  3  2  0  0  0  0
 11 26  1  0  0  0  0
 12  1  2  0  0  0  0
 13 14  1  0  0  0  0
 13 12  1  6  0  0  0
 14 27  1  0  0  0  0
 15 28  1  0  0  0  0
 15 14  2  0  0  0  0
 16 17  2  0  0  0  0
 16 15  1  0  0  0  0
 17  5  1  0  0  0  0
 18 21  1  0  0  0  0
 19 18  1  0  0  0  0
 20 18  1  0  0  0  0
 23  7  1  0  0  0  0
 24  8  1  0  0  0  0
 25  9  1  0  0  0  0
 29 16  1  0  0  0  0
 30 17  1  0  0  0  0
M  END
