2,3
 OpenBabel05122313053D

 30 31  0  0  0  0  0  0  0  0999 V2000
   -1.8479    2.1419   -0.9247 O   0  0  0  0  0  0  0  0  0  0  0  0
    2.5890    0.4356   -0.0846 N   0  0  0  0  0  2  0  0  0  0  0  0
    0.0575    0.5643    0.4289 N   0  0  0  0  0  2  0  0  0  0  0  0
   -1.2863    0.4457    0.5564 N   0  0  0  0  0  0  0  0  0  0  0  0
   -3.7810   -0.4574    0.5823 N   0  0  0  0  0  0  0  0  0  0  0  0
    3.8858    0.2791   -0.4105 C   0  0  0  0  0  0  0  0  0  0  0  0
    4.7677    1.3654   -0.4567 C   0  0  0  0  0  0  0  0  0  0  0  0
    4.2856    2.6488   -0.1579 C   0  0  0  0  0  0  0  0  0  0  0  0
    2.9373    2.8069    0.1833 C   0  0  0  0  0  0  0  0  0  0  0  0
    2.0940    1.6805    0.2174 C   0  0  0  0  0  0  0  0  0  0  0  0
    0.6664    1.7353    0.5411 C   0  0  0  0  0  0  0  0  0  0  0  0
   -2.1707    1.1780   -0.2387 C   0  0  0  0  0  0  0  0  0  0  0  0
   -3.5728    0.6329   -0.1760 C   0  0  0  0  0  0  0  0  0  0  0  0
   -4.5818    1.2688   -0.9207 C   0  0  0  0  0  0  0  0  0  0  0  0
   -5.8745    0.7320   -0.8648 C   0  0  0  0  0  0  0  0  0  0  0  0
   -6.0995   -0.4080   -0.0789 C   0  0  0  0  0  0  0  0  0  0  0  0
   -5.0174   -0.9668    0.6258 C   0  0  0  0  0  0  0  0  0  0  0  0
    0.0073    2.9810    1.0339 C   0  0  0  0  0  0  0  0  0  0  0  0
   -1.5700   -0.5462    0.7503 H   0  0  0  0  0  0  0  0  0  0  0  0
    4.1789   -0.7636   -0.6258 H   0  0  0  0  0  0  0  0  0  0  0  0
    5.8195    1.1954   -0.7265 H   0  0  0  0  0  0  0  0  0  0  0  0
    4.9533    3.5222   -0.1916 H   0  0  0  0  0  0  0  0  0  0  0  0
    2.5277    3.7999    0.4117 H   0  0  0  0  0  0  0  0  0  0  0  0
   -4.3283    2.1545   -1.5201 H   0  0  0  0  0  0  0  0  0  0  0  0
   -6.6972    1.1947   -1.4308 H   0  0  0  0  0  0  0  0  0  0  0  0
   -7.0978   -0.8649   -0.0113 H   0  0  0  0  0  0  0  0  0  0  0  0
   -5.1563   -1.8670    1.2492 H   0  0  0  0  0  0  0  0  0  0  0  0
   -0.3720    3.5994    0.1959 H   0  0  0  0  0  0  0  0  0  0  0  0
   -0.8671    2.7157    1.6591 H   0  0  0  0  0  0  0  0  0  0  0  0
    0.7119    3.5768    1.6454 H   0  0  0  0  0  0  0  0  0  0  0  0
  1 12  2  0  0  0  0
  2 10  1  0  0  0  0
  3 11  1  0  0  0  0
  3  4  1  0  0  0  0
  4 19  1  0  0  0  0
  5 17  1  0  0  0  0
  6  2  1  0  0  0  0
  7  6  2  0  0  0  0
  7  8  1  0  0  0  0
  8  9  2  0  0  0  0
  9 10  1  0  0  0  0
  9 23  1  0  0  0  0
 10 11  2  0  0  0  0
 11 18  1  0  0  0  0
 12 13  1  0  0  0  0
 12  4  1  0  0  0  0
 13  5  2  0  0  0  0
 14 15  2  0  0  0  0
 14 13  1  0  0  0  0
 15 16  1  0  0  0  0
 16 26  1  0  0  0  0
 16 17  2  0  0  0  0
 17 27  1  0  0  0  0
 18 30  1  0  0  0  0
 18 29  1  0  0  0  0
 20  6  1  0  0  0  0
 21  7  1  0  0  0  0
 22  8  1  0  0  0  0
 24 14  1  0  0  0  0
 25 15  1  0  0  0  0
 28 18  1  0  0  0  0
M  END
