3,6
 OpenBabel05122313053D

 22 23  0  0  0  0  0  0  0  0999 V2000
    6.2330    0.3312    0.5533 Cl  0  0  0  0  0  0  0  0  0  0  0  0
    1.8516   -0.6289   -2.4848 Cl  0  0  0  0  0  0  0  0  0  0  0  0
   -2.1412    0.9982   -0.1478 N   0  0  0  0  0  2  0  0  0  0  0  0
   -1.9643    3.3546   -0.5967 N   0  0  0  0  0  0  0  0  0  0  0  0
   -0.0610    2.0251   -0.3790 N   0  0  0  0  0  2  0  0  0  0  0  0
    0.3320    0.7941   -0.2352 N   0  0  0  0  0  2  0  0  0  0  0  0
   -3.4888    1.0716   -0.1840 C   0  0  0  0  0  3  0  0  0  0  0  0
   -4.0325    0.1319   -0.0029 H   0  0  0  0  0  0  0  0  0  0  0  0
   -4.1208    2.2903   -0.4228 C   0  0  0  0  0  0  0  0  0  0  0  0
   -5.2163    2.3623   -0.4472 H   0  0  0  0  0  0  0  0  0  0  0  0
   -3.2941    3.4191   -0.6172 C   0  0  0  0  0  0  0  0  0  0  0  0
   -3.7372    4.4147   -0.7979 H   0  0  0  0  0  0  0  0  0  0  0  0
   -1.4265    2.1432   -0.3727 C   0  0  0  0  0  0  0  0  0  0  0  0
    1.7622    0.6880   -0.0896 C   0  0  0  0  0  0  0  0  0  0  0  0
    2.3564    1.2627    1.0459 C   0  0  0  0  0  0  0  0  0  0  0  0
    1.7078    1.7690    1.7737 H   0  0  0  0  0  0  0  0  0  0  0  0
    3.7334    1.1532    1.2572 C   0  0  0  0  0  0  0  0  0  0  0  0
    4.2023    1.5852    2.1513 H   0  0  0  0  0  0  0  0  0  0  0  0
    4.5174    0.4740    0.3085 C   0  0  0  0  0  0  0  0  0  0  0  0
    3.9424   -0.0873   -0.8424 C   0  0  0  0  0  0  0  0  0  0  0  0
    4.5637   -0.5966   -1.5901 H   0  0  0  0  0  0  0  0  0  0  0  0
    2.5579    0.0183   -1.0408 C   0  0  0  0  0  0  0  0  0  0  0  0
  2 22  1  0  0  0  0
  4 13  2  0  0  0  0
  5 13  1  0  0  0  0
  5  6  1  0  0  0  0
  6 14  1  0  0  0  0
  7  3  1  0  0  0  0
  7  8  1  0  0  0  0
  9  7  1  0  0  0  0
 10  9  1  0  0  0  0
 11  4  1  0  0  0  0
 11  9  2  0  0  0  0
 12 11  1  0  0  0  0
 13  3  1  0  0  0  0
 14 15  1  0  0  0  0
 15 17  2  0  0  0  0
 15 16  1  0  0  0  0
 17 18  1  0  0  0  0
 19  1  1  0  0  0  0
 19 17  1  0  0  0  0
 20 19  2  0  0  0  0
 21 20  1  0  0  0  0
 22 20  1  0  0  0  0
 22 14  2  0  0  0  0
M  END
