1,2
 OpenBabel05122313053D

 56 59  0  0  1  0  0  0  0  0999 V2000
   -0.1546   -1.1767   -0.0150 N   0  0  0  0  0  2  0  0  0  0  0  0
    0.7251    1.2841    0.4588 N   0  0  0  0  0  2  0  0  0  0  0  0
   -0.9325   -0.4847    1.0171 C   0  0  1  0  0  0  0  0  0  0  0  0
   -0.5651   -0.7767    2.0297 H   0  0  0  0  0  0  0  0  0  0  0  0
   -0.6634    1.0628    0.8856 C   0  0  2  0  0  0  0  0  0  0  0  0
   -0.8259    1.4622    1.9117 H   0  0  0  0  0  0  0  0  0  0  0  0
   -2.4253   -0.7617    0.9893 C   0  0  0  0  0  0  0  0  0  0  0  0
   -3.1227   -0.9288   -0.2228 C   0  0  0  0  0  0  0  0  0  0  0  0
   -2.5651   -0.9303   -1.1698 H   0  0  0  0  0  0  0  0  0  0  0  0
   -4.5127   -1.0730   -0.2270 C   0  0  0  0  0  0  0  0  0  0  0  0
   -5.0390   -1.1958   -1.1871 H   0  0  0  0  0  0  0  0  0  0  0  0
   -5.2571   -1.0549    0.9727 C   0  0  0  0  0  0  0  0  0  0  0  0
   -4.5521   -0.8993    2.1807 C   0  0  0  0  0  0  0  0  0  0  0  0
   -5.1061   -0.8897    3.1329 H   0  0  0  0  0  0  0  0  0  0  0  0
   -3.1553   -0.7597    2.1886 C   0  0  0  0  0  0  0  0  0  0  0  0
   -2.6233   -0.6397    3.1470 H   0  0  0  0  0  0  0  0  0  0  0  0
   -6.7574   -1.2044    0.9485 C   0  0  0  0  0  0  0  0  0  0  0  0
   -7.0593   -2.1791    0.5109 H   0  0  0  0  0  0  0  0  0  0  0  0
   -7.2295   -0.4157    0.3260 H   0  0  0  0  0  0  0  0  0  0  0  0
   -7.1925   -1.1408    1.9647 H   0  0  0  0  0  0  0  0  0  0  0  0
   -1.6410    1.7739   -0.0392 C   0  0  0  0  0  0  0  0  0  0  0  0
   -2.7944    2.3830    0.4850 C   0  0  0  0  0  0  0  0  0  0  0  0
   -2.9597    2.3849    1.5742 H   0  0  0  0  0  0  0  0  0  0  0  0
   -3.7507    2.9577   -0.3621 C   0  0  0  0  0  0  0  0  0  0  0  0
   -4.6524    3.4199    0.0705 H   0  0  0  0  0  0  0  0  0  0  0  0
   -3.5787    2.9513   -1.7607 C   0  0  0  0  0  0  0  0  0  0  0  0
   -2.4101    2.3536   -2.2764 C   0  0  0  0  0  0  0  0  0  0  0  0
   -2.2468    2.3386   -3.3661 H   0  0  0  0  0  0  0  0  0  0  0  0
   -1.4514    1.7768   -1.4336 C   0  0  0  0  0  0  0  0  0  0  0  0
   -0.5473    1.3169   -1.8605 H   0  0  0  0  0  0  0  0  0  0  0  0
   -4.5907    3.5949   -2.6752 C   0  0  0  0  0  0  0  0  0  0  0  0
   -4.6827    3.0448   -3.6331 H   0  0  0  0  0  0  0  0  0  0  0  0
   -4.2960    4.6365   -2.9282 H   0  0  0  0  0  0  0  0  0  0  0  0
   -5.5934    3.6436   -2.2064 H   0  0  0  0  0  0  0  0  0  0  0  0
   -0.4006   -2.5185   -0.3199 C   0  0  0  0  0  0  0  0  0  0  0  0
    0.0137   -2.9971   -1.5902 C   0  0  0  0  0  0  0  0  0  0  0  0
    0.4523   -2.2794   -2.3010 H   0  0  0  0  0  0  0  0  0  0  0  0
   -0.1448   -4.3449   -1.9327 C   0  0  0  0  0  0  0  0  0  0  0  0
    0.1854   -4.6924   -2.9239 H   0  0  0  0  0  0  0  0  0  0  0  0
   -0.7345   -5.2459   -1.0301 C   0  0  0  0  0  0  0  0  0  0  0  0
   -0.8655   -6.3036   -1.3028 H   0  0  0  0  0  0  0  0  0  0  0  0
   -1.1717   -4.7760    0.2201 C   0  0  0  0  0  0  0  0  0  0  0  0
   -1.6461   -5.4692    0.9320 H   0  0  0  0  0  0  0  0  0  0  0  0
   -1.0132   -3.4309    0.5782 C   0  0  0  0  0  0  0  0  0  0  0  0
   -1.3664   -3.0836    1.5582 H   0  0  0  0  0  0  0  0  0  0  0  0
    1.2362    2.5847    0.5627 C   0  0  0  0  0  0  0  0  0  0  0  0
    0.8384    3.4975    1.5720 C   0  0  0  0  0  0  0  0  0  0  0  0
    0.0650    3.2140    2.2991 H   0  0  0  0  0  0  0  0  0  0  0  0
    1.4370    4.7599    1.6668 C   0  0  0  0  0  0  0  0  0  0  0  0
    1.1182    5.4476    2.4654 H   0  0  0  0  0  0  0  0  0  0  0  0
    2.4363    5.1531    0.7608 C   0  0  0  0  0  0  0  0  0  0  0  0
    2.9026    6.1461    0.8426 H   0  0  0  0  0  0  0  0  0  0  0  0
    2.8114    4.2703   -0.2655 C   0  0  0  0  0  0  0  0  0  0  0  0
    3.5672    4.5726   -1.0070 H   0  0  0  0  0  0  0  0  0  0  0  0
    2.2105    3.0108   -0.3742 C   0  0  0  0  0  0  0  0  0  0  0  0
    2.4568    2.3419   -1.2115 H   0  0  0  0  0  0  0  0  0  0  0  0
  1  3  1  0  0  0  0
  2 46  1  0  0  0  0
  2  5  1  0  0  0  0
  3  4  1  1  0  0  0
  5  3  1  0  0  0  0
  5  6  1  1  0  0  0
  7  3  1  0  0  0  0
  7 15  1  0  0  0  0
  8  7  2  0  0  0  0
  9  8  1  0  0  0  0
 10  8  1  0  0  0  0
 10 12  2  0  0  0  0
 11 10  1  0  0  0  0
 12 13  1  0  0  0  0
 13 15  2  0  0  0  0
 13 14  1  0  0  0  0
 15 16  1  0  0  0  0
 17 12  1  0  0  0  0
 17 20  1  0  0  0  0
 18 17  1  0  0  0  0
 19 17  1  0  0  0  0
 21 22  1  0  0  0  0
 21  5  1  0  0  0  0
 22 23  1  0  0  0  0
 24 25  1  0  0  0  0
 24 22  2  0  0  0  0
 26 24  1  0  0  0  0
 27 26  2  0  0  0  0
 27 29  1  0  0  0  0
 28 27  1  0  0  0  0
 29 21  2  0  0  0  0
 30 29  1  0  0  0  0
 31 34  1  0  0  0  0
 31 26  1  0  0  0  0
 32 31  1  0  0  0  0
 33 31  1  0  0  0  0
 35  1  1  0  0  0  0
 35 44  1  0  0  0  0
 36 35  2  0  0  0  0
 37 36  1  0  0  0  0
 38 36  1  0  0  0  0
 38 40  2  0  0  0  0
 39 38  1  0  0  0  0
 40 42  1  0  0  0  0
 41 40  1  0  0  0  0
 42 44  2  0  0  0  0
 42 43  1  0  0  0  0
 44 45  1  0  0  0  0
 46 47  1  0  0  0  0
 47 49  2  0  0  0  0
 47 48  1  0  0  0  0
 49 50  1  0  0  0  0
 51 52  1  0  0  0  0
 51 49  1  0  0  0  0
 53 51  2  0  0  0  0
 54 53  1  0  0  0  0
 55 53  1  0  0  0  0
 55 46  2  0  0  0  0
 56 55  1  0  0  0  0
M  END
