1,2
 OpenBabel05122313053D

 25 26  0  0  0  0  0  0  0  0999 V2000
   -1.0036   -1.6985   -1.6079 N   0  0  0  0  0  2  0  0  0  0  0  0
    0.9228   -0.0448   -0.7698 N   0  0  0  0  0  0  0  0  0  0  0  0
    2.0240    0.6307   -0.4334 N   0  0  0  0  0  2  0  0  0  0  0  0
    2.6088   -1.0726   -1.8467 N   0  0  0  0  0  0  0  0  0  0  0  0
   -2.0232   -2.5039   -1.9674 C   0  0  0  0  0  3  0  0  0  0  0  0
   -3.0058   -2.2495   -1.5395 H   0  0  0  0  0  0  0  0  0  0  0  0
   -1.8525   -3.5891   -2.8327 C   0  0  0  0  0  0  0  0  0  0  0  0
   -2.7162   -4.2143   -3.0989 H   0  0  0  0  0  0  0  0  0  0  0  0
   -0.5681   -3.8538   -3.3433 C   0  0  0  0  0  0  0  0  0  0  0  0
   -0.4021   -4.6997   -4.0271 H   0  0  0  0  0  0  0  0  0  0  0  0
    0.4962   -3.0317   -2.9666 C   0  0  0  0  0  0  0  0  0  0  0  0
    1.5246   -3.1882   -3.3210 H   0  0  0  0  0  0  0  0  0  0  0  0
    0.2514   -1.9562   -2.0905 C   0  0  0  0  0  0  0  0  0  0  0  0
    1.2815   -1.0523   -1.6190 C   0  0  0  0  0  0  0  0  0  0  0  0
    3.0087   -0.0182   -1.1024 C   0  0  0  0  0  0  0  0  0  0  0  0
    4.4516    0.3466   -0.8972 C   0  0  0  0  0  0  0  0  0  0  0  0
    5.0101   -0.2683    0.4293 C   0  0  0  0  0  0  0  0  0  0  0  0
    6.5511   -0.1531    0.6314 C   0  0  0  0  0  0  0  0  0  0  0  0
    4.6090    1.6980   -0.8167 F   0  0  0  0  0  0  0  0  0  0  0  0
    5.2175   -0.1200   -1.9238 F   0  0  0  0  0  0  0  0  0  0  0  0
    4.4073    0.3442    1.4791 F   0  0  0  0  0  0  0  0  0  0  0  0
    4.6986   -1.5934    0.4663 F   0  0  0  0  0  0  0  0  0  0  0  0
    6.9629    1.1144    0.4676 F   0  0  0  0  0  0  0  0  0  0  0  0
    6.8626   -0.5450    1.8821 F   0  0  0  0  0  0  0  0  0  0  0  0
    7.2063   -0.9409   -0.2346 F   0  0  0  0  0  0  0  0  0  0  0  0
  2  3  1  0  0  0  0
  4 14  1  0  0  0  0
  4 15  2  0  0  0  0
  5  1  1  0  0  0  0
  5  6  1  0  0  0  0
  7  5  1  0  0  0  0
  8  7  1  0  0  0  0
  9 11  1  0  0  0  0
  9  7  2  0  0  0  0
 10  9  1  0  0  0  0
 11 13  2  0  0  0  0
 12 11  1  0  0  0  0
 13 14  1  0  0  0  0
 13  1  1  0  0  0  0
 14  2  2  0  0  0  0
 15 16  1  0  0  0  0
 15  3  1  0  0  0  0
 16 19  1  0  0  0  0
 16 17  1  0  0  0  0
 17 22  1  0  0  0  0
 17 18  1  0  0  0  0
 17 21  1  0  0  0  0
 18 24  1  0  0  0  0
 20 16  1  0  0  0  0
 23 18  1  0  0  0  0
 25 18  1  0  0  0  0
M  END
