1,2
 OpenBabel05122313053D

 74 78  0  0  1  0  0  0  0  0999 V2000
   -0.7583    1.2988    1.1235 N   0  0  0  0  0  0  0  0  0  0  0  0
    0.2601    1.0162   -1.6102 N   0  0  0  0  0  0  0  0  0  0  0  0
   -0.3741    2.5085    0.3160 C   0  0  1  0  0  0  0  0  0  0  0  0
    0.7055    2.6645    0.5268 H   0  0  0  0  0  0  0  0  0  0  0  0
   -0.5095    2.2390   -1.1995 C   0  0  1  0  0  0  0  0  0  0  0  0
   -1.5738    1.9882   -1.3873 H   0  0  0  0  0  0  0  0  0  0  0  0
   -0.1689    3.4919   -2.0301 C   0  0  0  0  0  0  0  0  0  0  0  0
    0.9096    3.7281   -1.9172 H   0  0  0  0  0  0  0  0  0  0  0  0
   -0.3325    3.2792   -3.1068 H   0  0  0  0  0  0  0  0  0  0  0  0
   -0.9673    4.7232   -1.5965 C   0  0  0  0  0  0  0  0  0  0  0  0
   -0.6811    5.5939   -2.2202 H   0  0  0  0  0  0  0  0  0  0  0  0
   -2.0535    4.5559   -1.7701 H   0  0  0  0  0  0  0  0  0  0  0  0
   -0.7237    5.0050   -0.1134 C   0  0  0  0  0  0  0  0  0  0  0  0
   -1.2923    5.8958    0.2214 H   0  0  0  0  0  0  0  0  0  0  0  0
    0.3517    5.2394    0.0500 H   0  0  0  0  0  0  0  0  0  0  0  0
   -1.1300    3.7889    0.7219 C   0  0  0  0  0  0  0  0  0  0  0  0
   -2.2201    3.6305    0.5850 H   0  0  0  0  0  0  0  0  0  0  0  0
   -0.9749    3.9894    1.8020 H   0  0  0  0  0  0  0  0  0  0  0  0
   -2.2460    1.1335    1.2380 C   0  0  0  0  0  0  0  0  0  0  0  0
   -2.6720    1.2499    0.2213 H   0  0  0  0  0  0  0  0  0  0  0  0
   -2.6720    1.9377    1.8755 H   0  0  0  0  0  0  0  0  0  0  0  0
   -0.1679    1.3587    2.4977 C   0  0  0  0  0  0  0  0  0  0  0  0
   -0.7362    0.6362    3.1119 H   0  0  0  0  0  0  0  0  0  0  0  0
   -0.3432    2.3649    2.9393 H   0  0  0  0  0  0  0  0  0  0  0  0
    1.7173    1.3029   -1.8220 C   0  0  0  0  0  0  0  0  0  0  0  0
    2.0417    1.9820   -1.0097 H   0  0  0  0  0  0  0  0  0  0  0  0
    1.8614    1.8430   -2.7834 H   0  0  0  0  0  0  0  0  0  0  0  0
   -0.3154    0.4128   -2.8524 C   0  0  0  0  0  0  0  0  0  0  0  0
   -0.5168    1.2129   -3.6001 H   0  0  0  0  0  0  0  0  0  0  0  0
    0.4689   -0.2359   -3.2806 H   0  0  0  0  0  0  0  0  0  0  0  0
   -2.6396   -0.2119    1.7960 C   0  0  0  0  0  0  0  0  0  0  0  0
   -3.0834   -0.3564    3.1250 C   0  0  0  0  0  0  0  0  0  0  0  0
   -3.1856    0.5344    3.7655 H   0  0  0  0  0  0  0  0  0  0  0  0
   -3.4043   -1.6240    3.6371 C   0  0  0  0  0  0  0  0  0  0  0  0
   -3.7515   -1.7226    4.6763 H   0  0  0  0  0  0  0  0  0  0  0  0
   -3.2884   -2.7610    2.8218 C   0  0  0  0  0  0  0  0  0  0  0  0
   -3.5458   -3.7533    3.2217 H   0  0  0  0  0  0  0  0  0  0  0  0
   -2.8628   -2.6242    1.4904 C   0  0  0  0  0  0  0  0  0  0  0  0
   -2.7948   -3.5052    0.8343 H   0  0  0  0  0  0  0  0  0  0  0  0
   -2.5445   -1.3573    0.9835 C   0  0  0  0  0  0  0  0  0  0  0  0
   -2.2444   -1.2517   -0.0701 H   0  0  0  0  0  0  0  0  0  0  0  0
    1.2949    0.9982    2.5753 C   0  0  0  0  0  0  0  0  0  0  0  0
    2.3110    1.9713    2.4762 C   0  0  0  0  0  0  0  0  0  0  0  0
    2.0415    3.0308    2.3395 H   0  0  0  0  0  0  0  0  0  0  0  0
    3.6632    1.6113    2.5955 C   0  0  0  0  0  0  0  0  0  0  0  0
    4.4447    2.3819    2.5204 H   0  0  0  0  0  0  0  0  0  0  0  0
    4.0154    0.2735    2.8357 C   0  0  0  0  0  0  0  0  0  0  0  0
    5.0740   -0.0052    2.9466 H   0  0  0  0  0  0  0  0  0  0  0  0
    3.0116   -0.7026    2.9494 C   0  0  0  0  0  0  0  0  0  0  0  0
    3.2818   -1.7485    3.1603 H   0  0  0  0  0  0  0  0  0  0  0  0
    1.6631   -0.3435    2.8133 C   0  0  0  0  0  0  0  0  0  0  0  0
    0.8750   -1.1048    2.9214 H   0  0  0  0  0  0  0  0  0  0  0  0
    2.5838    0.0659   -1.7928 C   0  0  0  0  0  0  0  0  0  0  0  0
    3.1018   -0.3886   -0.5649 C   0  0  0  0  0  0  0  0  0  0  0  0
    2.8966    0.1788    0.3543 H   0  0  0  0  0  0  0  0  0  0  0  0
    3.8988   -1.5403   -0.5053 C   0  0  0  0  0  0  0  0  0  0  0  0
    4.3090   -1.8639    0.4633 H   0  0  0  0  0  0  0  0  0  0  0  0
    4.1850   -2.2603   -1.6766 C   0  0  0  0  0  0  0  0  0  0  0  0
    4.8227   -3.1569   -1.6356 H   0  0  0  0  0  0  0  0  0  0  0  0
    3.6875   -1.8088   -2.9102 C   0  0  0  0  0  0  0  0  0  0  0  0
    3.9313   -2.3504   -3.8363 H   0  0  0  0  0  0  0  0  0  0  0  0
    2.9028   -0.6464   -2.9674 C   0  0  0  0  0  0  0  0  0  0  0  0
    2.5566   -0.2754   -3.9453 H   0  0  0  0  0  0  0  0  0  0  0  0
   -1.5468   -0.4325   -2.6320 C   0  0  0  0  0  0  0  0  0  0  0  0
   -1.4023   -1.8280   -2.4737 C   0  0  0  0  0  0  0  0  0  0  0  0
   -0.3944   -2.2688   -2.5123 H   0  0  0  0  0  0  0  0  0  0  0  0
   -2.5237   -2.6510   -2.2954 C   0  0  0  0  0  0  0  0  0  0  0  0
   -2.3954   -3.7391   -2.1915 H   0  0  0  0  0  0  0  0  0  0  0  0
   -3.8101   -2.0888   -2.2598 C   0  0  0  0  0  0  0  0  0  0  0  0
   -4.6912   -2.7315   -2.1163 H   0  0  0  0  0  0  0  0  0  0  0  0
   -3.9694   -0.7039   -2.4236 C   0  0  0  0  0  0  0  0  0  0  0  0
   -4.9765   -0.2611   -2.4173 H   0  0  0  0  0  0  0  0  0  0  0  0
   -2.8466    0.1156   -2.6212 C   0  0  0  0  0  0  0  0  0  0  0  0
   -2.9890    1.1925   -2.8043 H   0  0  0  0  0  0  0  0  0  0  0  0
  1 19  1  0  0  0  0
  1 22  1  0  0  0  0
  2  5  1  0  0  0  0
  3  4  1  1  0  0  0
  3 16  1  0  0  0  0
  3  1  1  0  0  0  0
  5  6  1  6  0  0  0
  5  3  1  0  0  0  0
  7  8  1  0  0  0  0
  7 10  1  0  0  0  0
  7  5  1  0  0  0  0
  9  7  1  0  0  0  0
 10 13  1  0  0  0  0
 11 10  1  0  0  0  0
 12 10  1  0  0  0  0
 13 15  1  0  0  0  0
 13 14  1  0  0  0  0
 13 16  1  0  0  0  0
 16 18  1  0  0  0  0
 17 16  1  0  0  0  0
 19 31  1  0  0  0  0
 19 21  1  0  0  0  0
 20 19  1  0  0  0  0
 22 42  1  0  0  0  0
 22 24  1  0  0  0  0
 22 23  1  0  0  0  0
 25 53  1  0  0  0  0
 25  2  1  0  0  0  0
 25 26  1  0  0  0  0
 27 25  1  0  0  0  0
 28 64  1  0  0  0  0
 28  2  1  0  0  0  0
 29 28  1  0  0  0  0
 30 28  1  0  0  0  0
 31 32  1  0  0  0  0
 32 34  2  0  0  0  0
 32 33  1  0  0  0  0
 34 35  1  0  0  0  0
 36 37  1  0  0  0  0
 36 34  1  0  0  0  0
 38 36  2  0  0  0  0
 39 38  1  0  0  0  0
 40 38  1  0  0  0  0
 40 31  2  0  0  0  0
 41 40  1  0  0  0  0
 42 51  1  0  0  0  0
 43 42  2  0  0  0  0
 43 45  1  0  0  0  0
 44 43  1  0  0  0  0
 45 47  2  0  0  0  0
 46 45  1  0  0  0  0
 47 48  1  0  0  0  0
 47 49  1  0  0  0  0
 49 50  1  0  0  0  0
 51 52  1  0  0  0  0
 51 49  2  0  0  0  0
 53 54  1  0  0  0  0
 54 56  2  0  0  0  0
 54 55  1  0  0  0  0
 56 57  1  0  0  0  0
 58 59  1  0  0  0  0
 58 56  1  0  0  0  0
 60 58  2  0  0  0  0
 61 60  1  0  0  0  0
 62 60  1  0  0  0  0
 62 53  2  0  0  0  0
 63 62  1  0  0  0  0
 64 73  2  0  0  0  0
 64 65  1  0  0  0  0
 65 67  2  0  0  0  0
 66 65  1  0  0  0  0
 67 69  1  0  0  0  0
 67 68  1  0  0  0  0
 69 70  1  0  0  0  0
 71 72  1  0  0  0  0
 71 69  2  0  0  0  0
 73 71  1  0  0  0  0
 74 73  1  0  0  0  0
M  END
