1,2
 OpenBabel05122313053D

 18 18  0  0  1  0  0  0  0  0999 V2000
   -1.4084   -0.7820   -0.5855 N   0  0  0  0  0  2  0  0  0  0  0  0
   -1.4110    1.5958    0.5206 N   0  0  0  0  0  2  0  0  0  0  0  0
   -1.4334   -2.0454   -1.0218 C   0  0  0  0  0  3  0  0  0  0  0  0
   -2.3986   -2.5161   -1.9256 C   0  0  0  0  0  0  0  0  0  0  0  0
   -3.3821   -1.6216   -2.3703 C   0  0  0  0  0  0  0  0  0  0  0  0
   -3.3762   -0.3059   -1.8903 C   0  0  0  0  0  0  0  0  0  0  0  0
   -2.3686    0.0858   -0.9833 C   0  0  0  0  0  0  0  0  0  0  0  0
   -2.3179    1.4455   -0.4014 C   0  0  1  0  0  3  0  0  0  0  0  0
   -3.2521    2.5335   -0.8341 C   0  0  0  0  0  0  0  0  0  0  0  0
   -1.2735    2.7952    1.0974 O   0  0  0  0  0  0  0  0  0  0  0  0
   -0.6566   -2.7121   -0.6130 H   0  0  0  0  0  0  0  0  0  0  0  0
   -2.3768   -3.5618   -2.2638 H   0  0  0  0  0  0  0  0  0  0  0  0
   -4.1595   -1.9486   -3.0774 H   0  0  0  0  0  0  0  0  0  0  0  0
   -4.1498    0.4078   -2.2048 H   0  0  0  0  0  0  0  0  0  0  0  0
   -2.9961    3.4745   -0.3165 H   0  0  0  0  0  0  0  0  0  0  0  0
   -4.3034    2.2744   -0.5894 H   0  0  0  0  0  0  0  0  0  0  0  0
   -3.1997    2.6952   -1.9303 H   0  0  0  0  0  0  0  0  0  0  0  0
   -0.4726    2.6063    1.7382 H   0  0  0  0  0  0  0  0  0  0  0  0
  2 10  1  0  0  0  0
  3 11  1  0  0  0  0
  3  1  1  0  0  0  0
  4  3  1  0  0  0  0
  5  4  2  0  0  0  0
  5  6  1  0  0  0  0
  6  7  2  0  0  0  0
  7  1  1  0  0  0  0
  7  8  1  0  0  0  0
  8  2  1  1  0  0  0
  9 16  1  0  0  0  0
  9  8  1  0  0  0  0
  9 15  1  0  0  0  0
 10 18  1  0  0  0  0
 12  4  1  0  0  0  0
 13  5  1  0  0  0  0
 14  6  1  0  0  0  0
 17  9  1  0  0  0  0
M  END
