1,2
 OpenBabel05122313053D

 48 53  0  0  1  0  0  0  0  0999 V2000
   -1.4584   -0.5260   -0.6570 N   0  0  0  0  0  2  0  0  0  0  0  0
    0.8375   -1.8701   -0.4216 N   0  0  0  0  0  2  0  0  0  0  0  0
    2.1021   -0.3973   -1.5594 N   0  0  0  0  0  0  0  0  0  0  0  0
    1.4402    1.6704    0.0083 N   0  0  0  0  0  0  0  0  0  0  0  0
   -0.4582   -0.0897   -1.4333 C   0  0  0  0  0  0  0  0  0  0  0  0
   -0.6671    0.9217   -2.4149 C   0  0  0  0  0  0  0  0  0  0  0  0
    0.1469    1.2424   -3.0744 H   0  0  0  0  0  0  0  0  0  0  0  0
   -1.9215    1.4926   -2.5342 C   0  0  0  0  0  0  0  0  0  0  0  0
   -2.1039    2.2828   -3.2788 H   0  0  0  0  0  0  0  0  0  0  0  0
   -2.9914    1.0580   -1.7050 C   0  0  0  0  0  0  0  0  0  0  0  0
   -2.7124   -0.0024   -0.7690 C   0  0  0  0  0  0  0  0  0  0  0  0
   -4.3057    1.5995   -1.7672 C   0  0  0  0  0  3  0  0  0  0  0  0
   -4.5143    2.4129   -2.4792 H   0  0  0  0  0  0  0  0  0  0  0  0
   -5.3036    1.1009   -0.9427 C   0  0  0  0  0  0  0  0  0  0  0  0
   -6.3193    1.5211   -0.9930 H   0  0  0  0  0  0  0  0  0  0  0  0
   -5.0272    0.0388   -0.0377 C   0  0  0  0  0  0  0  0  0  0  0  0
   -5.8352   -0.3577    0.5953 H   0  0  0  0  0  0  0  0  0  0  0  0
   -3.7581   -0.5111    0.0543 C   0  0  0  0  0  0  0  0  0  0  0  0
   -3.5399   -1.3631    0.7168 H   0  0  0  0  0  0  0  0  0  0  0  0
    0.8243   -0.7637   -1.1652 C   0  0  2  0  0  3  0  0  0  0  0  0
    2.1547   -2.2353   -0.2570 C   0  0  0  0  0  0  0  0  0  0  0  0
    2.7210   -3.2954    0.4740 C   0  0  0  0  0  0  0  0  0  0  0  0
    2.0776   -3.9873    1.0350 H   0  0  0  0  0  0  0  0  0  0  0  0
    4.1141   -3.4022    0.4722 C   0  0  0  0  0  0  0  0  0  0  0  0
    4.5959   -4.2128    1.0383 H   0  0  0  0  0  0  0  0  0  0  0  0
    4.9253   -2.4822   -0.2389 C   0  0  0  0  0  0  0  0  0  0  0  0
    6.0187   -2.6010   -0.2139 H   0  0  0  0  0  0  0  0  0  0  0  0
    4.3739   -1.4211   -0.9685 C   0  0  0  0  0  0  0  0  0  0  0  0
    5.0183   -0.7132   -1.5098 H   0  0  0  0  0  0  0  0  0  0  0  0
    2.9748   -1.3122   -0.9644 C   0  0  0  0  0  0  0  0  0  0  0  0
    2.5246    0.9104   -2.0254 C   0  0  0  0  0  0  0  0  0  0  0  0
    2.1260    1.1176   -3.0407 H   0  0  0  0  0  0  0  0  0  0  0  0
    3.6262    0.8841   -2.1404 H   0  0  0  0  0  0  0  0  0  0  0  0
    2.1315    2.0262   -1.0550 C   0  0  0  0  0  0  0  0  0  0  0  0
    2.4927    3.3774   -1.3347 C   0  0  0  0  0  0  0  0  0  0  0  0
    3.0776    3.6270   -2.2335 H   0  0  0  0  0  0  0  0  0  0  0  0
    2.0875    4.3618   -0.4479 C   0  0  0  0  0  0  0  0  0  0  0  0
    2.3430    5.4184   -0.6262 H   0  0  0  0  0  0  0  0  0  0  0  0
    1.3289    4.0131    0.7066 C   0  0  0  0  0  0  0  0  0  0  0  0
    1.0239    2.6157    0.8989 C   0  0  0  0  0  0  0  0  0  0  0  0
    0.8603    4.9584    1.6623 C   0  0  0  0  0  0  0  0  0  0  0  0
    1.0924    6.0255    1.5197 H   0  0  0  0  0  0  0  0  0  0  0  0
    0.1205    4.5316    2.7569 C   0  0  0  0  0  0  0  0  0  0  0  0
   -0.2402    5.2659    3.4933 H   0  0  0  0  0  0  0  0  0  0  0  0
   -0.1755    3.1522    2.9391 C   0  0  0  0  0  0  0  0  0  0  0  0
   -0.7608    2.8323    3.8146 H   0  0  0  0  0  0  0  0  0  0  0  0
    0.2658    2.2003    2.0304 C   0  0  0  0  0  0  0  0  0  0  0  0
    0.0551    1.1226    2.1577 H   0  0  0  0  0  0  0  0  0  0  0  0
  2 21  1  0  0  0  0
  3 20  1  0  0  0  0
  3 30  1  0  0  0  0
  4 40  1  0  0  0  0
  5  1  1  0  0  0  0
  6  5  2  0  0  0  0
  7  6  1  0  0  0  0
  8  6  1  0  0  0  0
  8 10  2  0  0  0  0
  9  8  1  0  0  0  0
 10 11  1  0  0  0  0
 11  1  1  0  0  0  0
 11 18  2  0  0  0  0
 12 10  1  0  0  0  0
 12 14  1  0  0  0  0
 13 12  1  0  0  0  0
 14 16  2  0  0  0  0
 15 14  1  0  0  0  0
 16 18  1  0  0  0  0
 16 17  1  0  0  0  0
 18 19  1  0  0  0  0
 20  5  1  1  0  0  0
 20  2  1  0  0  0  0
 21 22  1  0  0  0  0
 22 23  1  0  0  0  0
 24 22  2  0  0  0  0
 24 25  1  0  0  0  0
 26 27  1  0  0  0  0
 26 24  1  0  0  0  0
 28 30  1  0  0  0  0
 28 26  2  0  0  0  0
 29 28  1  0  0  0  0
 30 21  2  0  0  0  0
 31  3  1  0  0  0  0
 31 34  1  0  0  0  0
 32 31  1  0  0  0  0
 33 31  1  0  0  0  0
 34  4  2  0  0  0  0
 35 34  1  0  0  0  0
 35 37  2  0  0  0  0
 36 35  1  0  0  0  0
 37 39  1  0  0  0  0
 38 37  1  0  0  0  0
 39 40  2  0  0  0  0
 39 41  1  0  0  0  0
 40 47  1  0  0  0  0
 41 43  2  0  0  0  0
 42 41  1  0  0  0  0
 43 45  1  0  0  0  0
 43 44  1  0  0  0  0
 45 46  1  0  0  0  0
 47 48  1  0  0  0  0
 47 45  2  0  0  0  0
M  END
