1,2
 OpenBabel05122313053D

 26 25  0  0  0  0  0  0  0  0999 V2000
    2.1124   -0.0716    0.3050 N   0  0  0  0  0  0  0  0  0  0  0  0
    0.5439    1.0659   -1.6257 N   0  0  0  0  0  2  0  0  0  0  0  0
   -0.0345    1.4139   -2.4029 H   0  0  0  0  0  0  0  0  0  0  0  0
    0.9797   -3.3200    0.1028 N   0  0  0  0  0  0  0  0  0  0  0  0
    0.3326   -2.9243    0.8013 H   0  0  0  0  0  0  0  0  0  0  0  0
    0.5870   -3.9837   -0.5688 H   0  0  0  0  0  0  0  0  0  0  0  0
    2.3563    1.7646   -2.8834 O   0  0  0  0  0  0  0  0  0  0  0  0
    2.5285   -2.6676   -1.4595 O   0  0  0  0  0  0  0  0  0  0  0  0
    1.8700    1.1665   -1.9224 C   0  0  0  0  0  0  0  0  0  0  0  0
    2.7693    0.3674   -0.9693 C   0  0  0  0  0  0  0  0  0  0  0  0
    3.6944    0.9400   -0.7634 H   0  0  0  0  0  0  0  0  0  0  0  0
    3.0615   -0.5449   -1.5288 H   0  0  0  0  0  0  0  0  0  0  0  0
    2.4855   -1.4745    0.6432 C   0  0  0  0  0  0  0  0  0  0  0  0
    3.5910   -1.5768    0.6591 H   0  0  0  0  0  0  0  0  0  0  0  0
    2.1079   -1.6888    1.6601 H   0  0  0  0  0  0  0  0  0  0  0  0
    1.9863   -2.5226   -0.3654 C   0  0  0  0  0  0  0  0  0  0  0  0
    2.4605    0.8305    1.4826 C   0  0  0  0  0  0  0  0  0  0  0  0
    1.8215    0.4500    2.3069 H   0  0  0  0  0  0  0  0  0  0  0  0
    3.9293    0.7355    1.9164 C   0  0  0  0  0  0  0  0  0  0  0  0
    4.0854    1.4123    2.7787 H   0  0  0  0  0  0  0  0  0  0  0  0
    4.2250   -0.2796    2.2423 H   0  0  0  0  0  0  0  0  0  0  0  0
    4.6226    1.0618    1.1153 H   0  0  0  0  0  0  0  0  0  0  0  0
    2.0630    2.2759    1.2075 C   0  0  0  0  0  0  0  0  0  0  0  0
    2.6619    2.7251    0.3900 H   0  0  0  0  0  0  0  0  0  0  0  0
    0.9939    2.3345    0.9368 H   0  0  0  0  0  0  0  0  0  0  0  0
    2.2291    2.8791    2.1211 H   0  0  0  0  0  0  0  0  0  0  0  0
  1 13  1  0  0  0  0
  1 17  1  0  0  0  0
  3  2  1  0  0  0  0
  4  5  1  0  0  0  0
  6  4  1  0  0  0  0
  7  9  2  0  0  0  0
  8 16  2  0  0  0  0
  9  2  1  0  0  0  0
  9 10  1  0  0  0  0
 10 11  1  0  0  0  0
 10  1  1  0  0  0  0
 12 10  1  0  0  0  0
 13 14  1  0  0  0  0
 13 15  1  0  0  0  0
 16  4  1  0  0  0  0
 16 13  1  0  0  0  0
 17 19  1  0  0  0  0
 17 18  1  0  0  0  0
 19 21  1  0  0  0  0
 19 20  1  0  0  0  0
 22 19  1  0  0  0  0
 23 17  1  0  0  0  0
 23 26  1  0  0  0  0
 24 23  1  0  0  0  0
 25 23  1  0  0  0  0
M  END
