3,5
 OpenBabel05122313053D

 25 26  0  0  1  0  0  0  0  0999 V2000
    2.6785    1.5087    1.9370 O   0  0  0  0  0  0  0  0  0  0  0  0
    1.7617    0.1949    0.2981 N   0  0  0  0  0  0  0  0  0  0  0  0
   -0.1179    1.4610   -0.4189 N   0  0  0  0  0  2  0  0  0  0  0  0
    2.0968    2.2892   -0.7134 N   0  0  0  0  0  0  0  0  0  0  0  0
    0.1959   -1.3793   -0.5204 N   0  0  0  0  0  2  0  0  0  0  0  0
    2.5320   -1.8575   -0.5612 N   0  0  0  0  0  0  0  0  0  0  0  0
    2.5437    0.3877    1.4924 C   0  0  0  0  0  0  0  0  0  0  0  0
    3.0877   -0.8564    2.1484 C   0  0  0  0  0  0  0  0  0  0  0  0
    3.8470   -1.3373    1.5036 H   0  0  0  0  0  0  0  0  0  0  0  0
    2.2851   -1.6006    2.3262 H   0  0  0  0  0  0  0  0  0  0  0  0
    3.5325   -0.5533    3.1117 H   0  0  0  0  0  0  0  0  0  0  0  0
    1.2294    1.3674   -0.3088 C   0  0  1  0  0  3  0  0  0  0  0  0
   -0.6295    2.6004   -0.9470 C   0  0  0  0  0  0  0  0  0  0  0  0
   -1.7302    2.6445   -0.9791 H   0  0  0  0  0  0  0  0  0  0  0  0
    0.2151    3.6336   -1.3543 C   0  0  0  0  0  0  0  0  0  0  0  0
   -0.1965    4.5638   -1.7694 H   0  0  0  0  0  0  0  0  0  0  0  0
    1.5961    3.4222   -1.2251 C   0  0  0  0  0  0  0  0  0  0  0  0
    2.3274    4.1811   -1.5526 H   0  0  0  0  0  0  0  0  0  0  0  0
    1.4974   -1.0632   -0.2830 C   0  0  1  0  0  3  0  0  0  0  0  0
   -0.0678   -2.5618   -1.1283 C   0  0  0  0  0  0  0  0  0  0  0  0
   -1.1366   -2.7861   -1.2713 H   0  0  0  0  0  0  0  0  0  0  0  0
    0.9666   -3.4386   -1.4611 C   0  0  0  0  0  0  0  0  0  0  0  0
    0.7538   -4.4004   -1.9472 H   0  0  0  0  0  0  0  0  0  0  0  0
    2.2699   -3.0443   -1.1278 C   0  0  0  0  0  0  0  0  0  0  0  0
    3.1378   -3.6947   -1.3318 H   0  0  0  0  0  0  0  0  0  0  0  0
  2  7  1  0  0  0  0
  3 12  1  0  0  0  0
  4 12  1  0  0  0  0
  5 19  1  0  0  0  0
  6 19  1  0  0  0  0
  7  1  2  0  0  0  0
  7  8  1  0  0  0  0
  8 10  1  0  0  0  0
  8 11  1  0  0  0  0
  9  8  1  0  0  0  0
 12  2  1  1  0  0  0
 13  3  1  0  0  0  0
 14 13  1  0  0  0  0
 15 17  1  0  0  0  0
 15 13  2  0  0  0  0
 16 15  1  0  0  0  0
 17  4  2  0  0  0  0
 18 17  1  0  0  0  0
 19  2  1  6  0  0  0
 20  5  1  0  0  0  0
 21 20  1  0  0  0  0
 22 20  2  0  0  0  0
 22 24  1  0  0  0  0
 23 22  1  0  0  0  0
 24  6  2  0  0  0  0
 25 24  1  0  0  0  0
M  END
