5,6
 OpenBabel05122313053D

 48 51  0  0  0  0  0  0  0  0999 V2000
   -2.3615    1.1381    1.5133 Cl  0  0  0  0  0  0  0  0  0  0  0  0
   -5.2433   -3.2368    3.1386 Cl  0  0  0  0  0  0  0  0  0  0  0  0
   -2.8310   -2.5634   -2.8600 Cl  0  0  0  0  0  0  0  0  0  0  0  0
    1.3824    0.8526   -3.7457 Cl  0  0  0  0  0  0  0  0  0  0  0  0
   -4.3219   -0.7376    0.0756 N   0  0  0  0  0  2  0  0  0  0  0  0
   -2.3116    0.4019   -2.0941 N   0  0  0  0  0  2  0  0  0  0  0  0
   -5.2569   -0.6813   -0.9858 C   0  0  0  0  0  0  0  0  0  0  0  0
   -6.1459   -1.7537   -1.2017 C   0  0  0  0  0  0  0  0  0  0  0  0
   -7.0336   -1.7285   -2.2849 C   0  0  0  0  0  0  0  0  0  0  0  0
   -7.0465   -0.6230   -3.1478 C   0  0  0  0  0  0  0  0  0  0  0  0
   -6.1671    0.4479   -2.9254 C   0  0  0  0  0  0  0  0  0  0  0  0
   -5.2452    0.4397   -1.8603 C   0  0  0  0  0  0  0  0  0  0  0  0
   -4.3799    1.6374   -1.6340 C   0  0  0  0  0  0  0  0  0  0  0  0
   -4.9871    2.8632   -1.2967 C   0  0  0  0  0  0  0  0  0  0  0  0
   -4.2315    4.0311   -1.1118 C   0  0  0  0  0  0  0  0  0  0  0  0
   -2.8410    4.0016   -1.2930 C   0  0  0  0  0  0  0  0  0  0  0  0
   -2.2146    2.8038   -1.6601 C   0  0  0  0  0  0  0  0  0  0  0  0
   -2.9713    1.6253   -1.8250 C   0  0  0  0  0  0  0  0  0  0  0  0
   -4.7090   -0.9438    1.2946 C   0  0  0  0  0  3  0  0  0  0  0  0
   -3.7447   -1.0775    2.3953 C   0  0  0  0  0  0  0  0  0  0  0  0
   -2.6085   -0.2389    2.5578 C   0  0  0  0  0  0  0  0  0  0  0  0
   -1.6714   -0.4594    3.5750 C   0  0  0  0  0  0  0  0  0  0  0  0
   -1.8661   -1.5218    4.4688 C   0  0  0  0  0  0  0  0  0  0  0  0
   -2.9866   -2.3570    4.3651 C   0  0  0  0  0  0  0  0  0  0  0  0
   -3.9048   -2.1271    3.3349 C   0  0  0  0  0  0  0  0  0  0  0  0
   -1.4692    0.2986   -3.0732 C   0  0  0  0  0  3  0  0  0  0  0  0
   -0.6492   -0.9040   -3.2509 C   0  0  0  0  0  0  0  0  0  0  0  0
   -1.1172   -2.2319   -3.0681 C   0  0  0  0  0  0  0  0  0  0  0  0
   -0.2536   -3.3314   -3.1140 C   0  0  0  0  0  0  0  0  0  0  0  0
    1.1140   -3.1216   -3.3443 C   0  0  0  0  0  0  0  0  0  0  0  0
    1.6114   -1.8339   -3.5698 C   0  0  0  0  0  0  0  0  0  0  0  0
    0.7331   -0.7464   -3.5323 C   0  0  0  0  0  0  0  0  0  0  0  0
   -6.1087   -2.6167   -0.5197 H   0  0  0  0  0  0  0  0  0  0  0  0
   -7.7135   -2.5767   -2.4544 H   0  0  0  0  0  0  0  0  0  0  0  0
   -7.7389   -0.5940   -4.0021 H   0  0  0  0  0  0  0  0  0  0  0  0
   -6.1787    1.3189   -3.5980 H   0  0  0  0  0  0  0  0  0  0  0  0
   -6.0792    2.8863   -1.1621 H   0  0  0  0  0  0  0  0  0  0  0  0
   -4.7317    4.9657   -0.8181 H   0  0  0  0  0  0  0  0  0  0  0  0
   -2.2331    4.9054   -1.1393 H   0  0  0  0  0  0  0  0  0  0  0  0
   -1.1233    2.7610   -1.7902 H   0  0  0  0  0  0  0  0  0  0  0  0
   -5.7867   -1.0654    1.5304 H   0  0  0  0  0  0  0  0  0  0  0  0
   -0.7977    0.2026    3.6506 H   0  0  0  0  0  0  0  0  0  0  0  0
   -1.1231   -1.7047    5.2590 H   0  0  0  0  0  0  0  0  0  0  0  0
   -3.1359   -3.2043    5.0466 H   0  0  0  0  0  0  0  0  0  0  0  0
   -1.2890    1.1552   -3.7534 H   0  0  0  0  0  0  0  0  0  0  0  0
   -0.6592   -4.3411   -2.9654 H   0  0  0  0  0  0  0  0  0  0  0  0
    1.8064   -3.9761   -3.3436 H   0  0  0  0  0  0  0  0  0  0  0  0
    2.6824   -1.6579   -3.7266 H   0  0  0  0  0  0  0  0  0  0  0  0
  1 21  1  0  0  0  0
  2 25  1  0  0  0  0
  4 32  1  0  0  0  0
  5 19  1  0  0  0  0
  6 18  1  0  0  0  0
  7  5  1  0  0  0  0
  8  7  1  0  0  0  0
  8 33  1  0  0  0  0
  9  8  2  0  0  0  0
 10 11  2  0  0  0  0
 10  9  1  0  0  0  0
 11 12  1  0  0  0  0
 12 13  1  0  0  0  0
 12  7  2  0  0  0  0
 13 14  1  0  0  0  0
 14 37  1  0  0  0  0
 14 15  2  0  0  0  0
 15 38  1  0  0  0  0
 16 39  1  0  0  0  0
 16 15  1  0  0  0  0
 17 16  2  0  0  0  0
 18 17  1  0  0  0  0
 18 13  2  0  0  0  0
 19 41  1  0  0  0  0
 19 20  1  0  0  0  0
 20 21  2  0  0  0  0
 20 25  1  0  0  0  0
 21 22  1  0  0  0  0
 22 42  1  0  0  0  0
 22 23  2  0  0  0  0
 23 43  1  0  0  0  0
 24 23  1  0  0  0  0
 24 44  1  0  0  0  0
 25 24  2  0  0  0  0
 26  6  1  0  0  0  0
 27 26  1  0  0  0  0
 27 28  1  0  0  0  0
 28  3  1  0  0  0  0
 29 28  2  0  0  0  0
 29 46  1  0  0  0  0
 30 47  1  0  0  0  0
 30 29  1  0  0  0  0
 31 32  1  0  0  0  0
 31 30  2  0  0  0  0
 32 27  2  0  0  0  0
 34  9  1  0  0  0  0
 35 10  1  0  0  0  0
 36 11  1  0  0  0  0
 40 17  1  0  0  0  0
 45 26  1  0  0  0  0
 48 31  1  0  0  0  0
M  END
