1,2
 OpenBabel05122313053D

 37 39  0  0  0  0  0  0  0  0999 V2000
   -2.8801   -1.1608    0.5959 N   0  0  0  0  0  2  0  0  0  0  0  0
   -0.9019    1.0320    0.5748 N   0  0  0  0  0  2  0  0  0  0  0  0
   -3.2461   -2.4388    0.5921 C   0  0  0  0  0  0  0  0  0  0  0  0
   -4.4475   -2.8967   -0.0032 C   0  0  0  0  0  0  0  0  0  0  0  0
   -5.2651   -1.9829   -0.6504 C   0  0  0  0  0  0  0  0  0  0  0  0
   -4.9234   -0.6020   -0.6367 C   0  0  0  0  0  0  0  0  0  0  0  0
   -5.7194    0.4155   -1.2385 C   0  0  0  0  0  3  0  0  0  0  0  0
   -5.3467    1.7460   -1.1274 C   0  0  0  0  0  0  0  0  0  0  0  0
   -4.1884    2.1118   -0.3885 C   0  0  0  0  0  0  0  0  0  0  0  0
   -3.3784    1.1512    0.2056 C   0  0  0  0  0  0  0  0  0  0  0  0
   -3.7174   -0.2283    0.0505 C   0  0  0  0  0  0  0  0  0  0  0  0
   -2.2050    1.4946    1.0905 C   0  0  0  0  0  0  0  0  0  0  0  0
    0.0568    2.0588    0.3290 C   0  0  0  0  0  0  0  0  0  0  0  0
    0.7906    2.5981    1.4187 C   0  0  0  0  0  0  0  0  0  0  0  0
    1.7518    3.5912    1.1510 C   0  0  0  0  0  0  0  0  0  0  0  0
    1.9777    4.0434   -0.1565 C   0  0  0  0  0  0  0  0  0  0  0  0
    1.2355    3.5085   -1.2185 C   0  0  0  0  0  0  0  0  0  0  0  0
    0.2615    2.5147   -0.9995 C   0  0  0  0  0  0  0  0  0  0  0  0
    0.5694    2.0805    2.8155 C   0  0  0  0  0  0  0  0  0  0  0  0
   -0.5324    1.9353   -2.1396 C   0  0  0  0  0  0  0  0  0  0  0  0
   -2.5376   -3.1414    1.0617 H   0  0  0  0  0  0  0  0  0  0  0  0
   -4.6941   -3.9674    0.0257 H   0  0  0  0  0  0  0  0  0  0  0  0
   -6.1832   -2.3066   -1.1656 H   0  0  0  0  0  0  0  0  0  0  0  0
   -6.6342    0.1280   -1.7791 H   0  0  0  0  0  0  0  0  0  0  0  0
   -5.9609    2.5315   -1.5923 H   0  0  0  0  0  0  0  0  0  0  0  0
   -3.9360    3.1771   -0.2683 H   0  0  0  0  0  0  0  0  0  0  0  0
   -2.1603    2.5942    1.2248 H   0  0  0  0  0  0  0  0  0  0  0  0
   -2.3813    1.0445    2.0935 H   0  0  0  0  0  0  0  0  0  0  0  0
    2.3371    4.0050    1.9874 H   0  0  0  0  0  0  0  0  0  0  0  0
    2.7355    4.8181   -0.3487 H   0  0  0  0  0  0  0  0  0  0  0  0
    1.4084    3.8647   -2.2463 H   0  0  0  0  0  0  0  0  0  0  0  0
   -0.4153    2.3972    3.2209 H   0  0  0  0  0  0  0  0  0  0  0  0
    1.3479    2.4540    3.5076 H   0  0  0  0  0  0  0  0  0  0  0  0
    0.5718    0.9710    2.8376 H   0  0  0  0  0  0  0  0  0  0  0  0
   -1.6229    2.0715   -1.9871 H   0  0  0  0  0  0  0  0  0  0  0  0
   -0.3790    0.8393   -2.2280 H   0  0  0  0  0  0  0  0  0  0  0  0
   -0.2546    2.4116   -3.0992 H   0  0  0  0  0  0  0  0  0  0  0  0
  2 12  1  0  0  0  0
  3  1  1  0  0  0  0
  3 21  1  0  0  0  0
  4 22  1  0  0  0  0
  4  3  2  0  0  0  0
  5  6  2  0  0  0  0
  5  4  1  0  0  0  0
  6 11  1  0  0  0  0
  7  8  1  0  0  0  0
  7  6  1  0  0  0  0
  8  9  2  0  0  0  0
  9 26  1  0  0  0  0
  9 10  1  0  0  0  0
 10 12  1  0  0  0  0
 11 10  2  0  0  0  0
 11  1  1  0  0  0  0
 12 27  1  0  0  0  0
 12 28  1  0  0  0  0
 13  2  1  0  0  0  0
 13 14  1  0  0  0  0
 14 19  1  0  0  0  0
 15 14  2  0  0  0  0
 15 29  1  0  0  0  0
 16 15  1  0  0  0  0
 17 18  1  0  0  0  0
 17 16  2  0  0  0  0
 18 13  2  0  0  0  0
 19 34  1  0  0  0  0
 19 32  1  0  0  0  0
 19 33  1  0  0  0  0
 20 35  1  0  0  0  0
 20 18  1  0  0  0  0
 23  5  1  0  0  0  0
 24  7  1  0  0  0  0
 25  8  1  0  0  0  0
 30 16  1  0  0  0  0
 31 17  1  0  0  0  0
 36 20  1  0  0  0  0
 37 20  1  0  0  0  0
M  END
