3,5
 OpenBabel05122313053D

 31 33  0  0  1  0  0  0  0  0999 V2000
   -3.1362    0.1503   -2.1279 O   0  0  0  0  0  0  0  0  0  0  0  0
   -4.2033    0.4237   -0.2313 O   0  0  0  0  0  0  0  0  0  0  0  0
    0.7248   -0.0102    1.6996 N   0  0  0  0  0  2  0  0  0  0  0  0
   -0.4242    0.3796    2.3116 N   0  0  0  0  0  0  0  0  0  0  0  0
   -1.1181   -1.4947    0.2122 N   0  0  0  0  0  2  0  0  0  0  0  0
   -1.9885   -0.8263    1.0171 N   0  0  0  0  0  0  0  0  0  0  0  0
   -3.2986    0.6711   -1.0246 N   0  0  0  0  0  0  0  0  0  0  0  0
    1.6776    0.0017    2.6492 C   0  0  0  0  0  3  0  0  0  0  0  0
    2.6898   -0.3374    2.4064 H   0  0  0  0  0  0  0  0  0  0  0  0
    1.1397    0.4305    3.8820 C   0  0  0  0  0  0  0  0  0  0  0  0
    1.6656    0.5438    4.8347 H   0  0  0  0  0  0  0  0  0  0  0  0
   -0.2097    0.6557    3.6333 C   0  0  0  0  0  0  0  0  0  0  0  0
   -1.0269    0.9927    4.2809 H   0  0  0  0  0  0  0  0  0  0  0  0
   -1.6579   -2.7063   -0.0028 C   0  0  0  0  0  3  0  0  0  0  0  0
   -1.1104   -3.4478   -0.5923 H   0  0  0  0  0  0  0  0  0  0  0  0
   -2.8967   -2.8185    0.6647 C   0  0  0  0  0  0  0  0  0  0  0  0
   -3.5760   -3.6760    0.6685 H   0  0  0  0  0  0  0  0  0  0  0  0
   -3.0700   -1.6083    1.3210 C   0  0  0  0  0  0  0  0  0  0  0  0
   -3.8878   -1.2257    1.9401 H   0  0  0  0  0  0  0  0  0  0  0  0
   -1.6648    0.4828    1.5561 C   0  0  2  0  0  0  0  0  0  0  0  0
   -2.4615    0.6980    2.2959 H   0  0  0  0  0  0  0  0  0  0  0  0
   -1.6055    1.6526    0.5631 C   0  0  0  0  0  0  0  0  0  0  0  0
   -2.3498    1.7331   -0.6301 C   0  0  0  0  0  0  0  0  0  0  0  0
   -2.2584    2.8314   -1.4978 C   0  0  0  0  0  0  0  0  0  0  0  0
   -2.8351    2.8216   -2.4335 H   0  0  0  0  0  0  0  0  0  0  0  0
   -1.4649    3.9278   -1.1403 C   0  0  0  0  0  0  0  0  0  0  0  0
   -1.4120    4.8043   -1.8021 H   0  0  0  0  0  0  0  0  0  0  0  0
   -0.7523    3.8988    0.0683 C   0  0  0  0  0  0  0  0  0  0  0  0
   -0.1328    4.7563    0.3683 H   0  0  0  0  0  0  0  0  0  0  0  0
   -0.8147    2.7694    0.8963 C   0  0  0  0  0  0  0  0  0  0  0  0
   -0.2249    2.7535    1.8236 H   0  0  0  0  0  0  0  0  0  0  0  0
  1  7  2  0  0  0  0
  3  4  1  0  0  0  0
  3  8  1  0  0  0  0
  4 12  1  0  0  0  0
  5  6  1  0  0  0  0
  6 18  1  0  0  0  0
  6 20  1  0  0  0  0
  7 23  1  0  0  0  0
  7  2  2  0  0  0  0
  8 10  1  0  0  0  0
  9  8  1  0  0  0  0
 10 11  1  0  0  0  0
 12 10  2  0  0  0  0
 12 13  1  0  0  0  0
 14  5  1  0  0  0  0
 14 16  1  0  0  0  0
 15 14  1  0  0  0  0
 16 17  1  0  0  0  0
 16 18  2  0  0  0  0
 18 19  1  0  0  0  0
 20 21  1  1  0  0  0
 20  4  1  0  0  0  0
 22 30  1  0  0  0  0
 22 20  1  0  0  0  0
 23 22  2  0  0  0  0
 24 26  2  0  0  0  0
 24 23  1  0  0  0  0
 25 24  1  0  0  0  0
 26 28  1  0  0  0  0
 27 26  1  0  0  0  0
 28 29  1  0  0  0  0
 28 30  2  0  0  0  0
 30 31  1  0  0  0  0
M  END
