3,4
 OpenBabel05122313053D

 26 26  0  0  1  0  0  0  0  0999 V2000
    6.0438    0.3771   -0.5401 Cl  0  0  0  0  0  0  0  0  0  0  0  0
   -2.3024    3.9092    0.0747 O   0  0  0  0  0  0  0  0  0  0  0  0
   -2.1176    0.6020    1.3320 N   0  0  0  0  0  2  0  0  0  0  0  0
    0.1771    1.3394    0.0390 N   0  0  0  0  0  2  0  0  0  0  0  0
    2.1407    0.9110   -1.3874 C   0  0  0  0  0  0  0  0  0  0  0  0
    1.4764    0.8661   -2.2612 H   0  0  0  0  0  0  0  0  0  0  0  0
   -3.7381    2.3811    1.8793 C   0  0  0  0  0  0  0  0  0  0  0  0
   -4.4897    2.6921    1.1245 H   0  0  0  0  0  0  0  0  0  0  0  0
   -3.5003    3.2953    2.4603 H   0  0  0  0  0  0  0  0  0  0  0  0
   -4.1894    1.6228    2.5483 H   0  0  0  0  0  0  0  0  0  0  0  0
    3.5136    0.6707   -1.5189 C   0  0  0  0  0  0  0  0  0  0  0  0
    3.9545    0.4561   -2.5025 H   0  0  0  0  0  0  0  0  0  0  0  0
    3.7976    0.9796    0.8872 C   0  0  0  0  0  0  0  0  0  0  0  0
    4.4555    1.0002    1.7672 H   0  0  0  0  0  0  0  0  0  0  0  0
    0.4478    3.7550   -0.4217 C   0  0  0  0  0  0  0  0  0  0  0  0
    1.1184    4.0641    0.4083 H   0  0  0  0  0  0  0  0  0  0  0  0
   -0.2495    4.5836   -0.6406 H   0  0  0  0  0  0  0  0  0  0  0  0
    1.0939    3.5532   -1.2973 H   0  0  0  0  0  0  0  0  0  0  0  0
    4.3350    0.6982   -0.3792 C   0  0  0  0  0  0  0  0  0  0  0  0
    1.5915    1.1818   -0.1204 C   0  0  0  0  0  0  0  0  0  0  0  0
   -1.7858    2.8044    0.3252 C   0  0  0  0  0  0  0  0  0  0  0  0
   -0.3576    2.5461   -0.0406 C   0  0  2  0  0  3  0  0  0  0  0  0
   -2.5202    1.8474    1.1881 C   0  0  2  0  0  3  0  0  0  0  0  0
    2.4243    1.2235    1.0128 C   0  0  0  0  0  0  0  0  0  0  0  0
    1.9796    1.4243    1.9977 H   0  0  0  0  0  0  0  0  0  0  0  0
   -2.6604    0.0568    2.0216 H   0  0  0  0  0  0  0  0  0  0  0  0
  1 19  1  0  0  0  0
  2 21  2  0  0  0  0
  3 26  1  0  0  0  0
  5 20  1  0  0  0  0
  6  5  1  0  0  0  0
  7  9  1  0  0  0  0
  7 10  1  0  0  0  0
  8  7  1  0  0  0  0
 11  5  2  0  0  0  0
 11 19  1  0  0  0  0
 12 11  1  0  0  0  0
 13 24  1  0  0  0  0
 13 14  1  0  0  0  0
 15 22  1  0  0  0  0
 15 16  1  0  0  0  0
 17 15  1  0  0  0  0
 18 15  1  0  0  0  0
 19 13  2  0  0  0  0
 20  4  1  0  0  0  0
 20 24  2  0  0  0  0
 22  4  1  1  0  0  0
 22 21  1  0  0  0  0
 23 21  1  6  0  0  0
 23  3  1  0  0  0  0
 23  7  1  0  0  0  0
 24 25  1  0  0  0  0
M  END
