3,5
 OpenBabel05122313053D

 43 45  0  0  1  0  0  0  0  0999 V2000
   -2.5054   -2.5725    0.7135 O   0  0  0  0  0  0  0  0  0  0  0  0
   -3.6507   -1.2000   -0.5514 O   0  0  0  0  0  0  0  0  0  0  0  0
   -0.1419   -1.0436   -1.0450 N   0  0  0  0  0  2  0  0  0  0  0  0
   -1.1265   -0.1712   -1.4187 N   0  0  0  0  0  0  0  0  0  0  0  0
    0.9474    1.5147   -0.2161 N   0  0  0  0  0  2  0  0  0  0  0  0
   -0.2609    1.9120   -0.7077 N   0  0  0  0  0  0  0  0  0  0  0  0
   -2.9149   -1.4564    0.3981 N   0  0  0  0  0  0  0  0  0  0  0  0
   -0.1646   -2.0517   -1.9490 C   0  0  1  0  0  3  0  0  0  0  0  0
   -1.1740   -1.7942   -2.9066 C   0  0  0  0  0  0  0  0  0  0  0  0
   -1.4379   -2.4281   -3.7585 H   0  0  0  0  0  0  0  0  0  0  0  0
   -1.7648   -0.5841   -2.5639 C   0  0  0  0  0  0  0  0  0  0  0  0
    0.7484   -3.2284   -1.9083 C   0  0  0  0  0  0  0  0  0  0  0  0
    1.7952   -2.9027   -1.7557 H   0  0  0  0  0  0  0  0  0  0  0  0
    0.6868   -3.7798   -2.8639 H   0  0  0  0  0  0  0  0  0  0  0  0
    0.4548   -3.9304   -1.1015 H   0  0  0  0  0  0  0  0  0  0  0  0
   -2.8716    0.1779   -3.2074 C   0  0  0  0  0  0  0  0  0  0  0  0
   -3.2263   -0.3725   -4.0971 H   0  0  0  0  0  0  0  0  0  0  0  0
   -2.5408    1.1812   -3.5489 H   0  0  0  0  0  0  0  0  0  0  0  0
   -3.7351    0.2982   -2.5224 H   0  0  0  0  0  0  0  0  0  0  0  0
    1.7771    2.5787   -0.3333 C   0  0  2  0  0  3  0  0  0  0  0  0
    1.0597    3.6654   -0.8912 C   0  0  0  0  0  0  0  0  0  0  0  0
    1.4565    4.6613   -1.1119 H   0  0  0  0  0  0  0  0  0  0  0  0
   -0.2376    3.2192   -1.1260 C   0  0  0  0  0  0  0  0  0  0  0  0
    3.2195    2.5485    0.0433 C   0  0  0  0  0  0  0  0  0  0  0  0
    3.7110    1.6704   -0.4216 H   0  0  0  0  0  0  0  0  0  0  0  0
    3.3577    2.4964    1.1421 H   0  0  0  0  0  0  0  0  0  0  0  0
    3.7179    3.4690   -0.3102 H   0  0  0  0  0  0  0  0  0  0  0  0
   -1.4289    3.9158   -1.6929 C   0  0  0  0  0  0  0  0  0  0  0  0
   -2.2834    3.9379   -0.9846 H   0  0  0  0  0  0  0  0  0  0  0  0
   -1.7768    3.4431   -2.6352 H   0  0  0  0  0  0  0  0  0  0  0  0
   -1.1667    4.9630   -1.9281 H   0  0  0  0  0  0  0  0  0  0  0  0
   -1.4026    1.0180   -0.6494 C   0  0  2  0  0  0  0  0  0  0  0  0
   -2.2193    1.5316   -1.1921 H   0  0  0  0  0  0  0  0  0  0  0  0
   -1.8696    0.8121    0.8007 C   0  0  0  0  0  0  0  0  0  0  0  0
   -2.5529   -0.3240    1.2788 C   0  0  0  0  0  0  0  0  0  0  0  0
   -2.9605   -0.4448    2.6163 C   0  0  0  0  0  0  0  0  0  0  0  0
   -3.4585   -1.3695    2.9409 H   0  0  0  0  0  0  0  0  0  0  0  0
   -2.7537    0.6203    3.5007 C   0  0  0  0  0  0  0  0  0  0  0  0
   -3.0968    0.5418    4.5424 H   0  0  0  0  0  0  0  0  0  0  0  0
   -2.1075    1.7801    3.0443 C   0  0  0  0  0  0  0  0  0  0  0  0
   -1.9381    2.6251    3.7273 H   0  0  0  0  0  0  0  0  0  0  0  0
   -1.6599    1.8614    1.7182 C   0  0  0  0  0  0  0  0  0  0  0  0
   -1.1168    2.7596    1.3905 H   0  0  0  0  0  0  0  0  0  0  0  0
  2  7  2  0  0  0  0
  4  3  1  0  0  0  0
  4 32  1  0  0  0  0
  6 32  1  0  0  0  0
  6  5  1  0  0  0  0
  7  1  2  0  0  0  0
  7 35  1  0  0  0  0
  8 12  1  6  0  0  0
  8  3  1  0  0  0  0
  9 11  2  0  0  0  0
  9  8  1  0  0  0  0
 10  9  1  0  0  0  0
 11  4  1  0  0  0  0
 12 13  1  0  0  0  0
 12 15  1  0  0  0  0
 14 12  1  0  0  0  0
 16 11  1  0  0  0  0
 16 19  1  0  0  0  0
 17 16  1  0  0  0  0
 18 16  1  0  0  0  0
 20  5  1  0  0  0  0
 20 24  1  6  0  0  0
 21 20  1  0  0  0  0
 22 21  1  0  0  0  0
 23 21  2  0  0  0  0
 23  6  1  0  0  0  0
 24 26  1  0  0  0  0
 25 24  1  0  0  0  0
 27 24  1  0  0  0  0
 28 23  1  0  0  0  0
 28 29  1  0  0  0  0
 30 28  1  0  0  0  0
 31 28  1  0  0  0  0
 32 33  1  6  0  0  0
 32 34  1  0  0  0  0
 34 35  2  0  0  0  0
 34 42  1  0  0  0  0
 35 36  1  0  0  0  0
 36 37  1  0  0  0  0
 36 38  2  0  0  0  0
 38 39  1  0  0  0  0
 40 38  1  0  0  0  0
 40 41  1  0  0  0  0
 42 40  2  0  0  0  0
 43 42  1  0  0  0  0
M  END
