3,4
 OpenBabel05122313053D

 16 17  0  0  0  0  0  0  0  0999 V2000
    5.5461   -1.8515   -0.0018 S   0  0  0  0  0  0  0  0  0  0  0  0
    4.0709    0.4277   -0.0372 O   0  0  0  0  0  0  0  0  0  0  0  0
    0.7993    2.0159    0.0192 N   0  0  0  0  0  2  0  0  0  0  0  0
    2.0306   -0.3875   -0.0792 N   0  0  0  0  0  2  0  0  0  0  0  0
    2.8265   -1.4720   -0.0567 N   0  0  0  0  0  2  0  0  0  0  0  0
    0.1154    3.1694    0.0731 C   0  0  0  0  0  0  0  0  0  0  0  0
    0.7634    4.4149    0.0967 C   0  0  0  0  0  0  0  0  0  0  0  0
    2.1701    4.4429    0.0650 C   0  0  0  0  0  0  0  0  0  0  0  0
    2.8892    3.2449    0.0094 C   0  0  0  0  0  0  0  0  0  0  0  0
    2.1664    2.0328   -0.0123 C   0  0  0  0  0  0  0  0  0  0  0  0
    2.7676    0.7178   -0.0586 C   0  0  0  0  0  0  0  0  0  0  0  0
    4.1186   -1.0380   -0.0335 C   0  0  0  0  0  0  0  0  0  0  0  0
   -0.9864    3.0717    0.0998 H   0  0  0  0  0  0  0  0  0  0  0  0
    0.1721    5.3397    0.1442 H   0  0  0  0  0  0  0  0  0  0  0  0
    3.9876    3.2228   -0.0142 H   0  0  0  0  0  0  0  0  0  0  0  0
    2.7065    5.4037    0.0852 H   0  0  0  0  0  0  0  0  0  0  0  0
  2 12  1  0  0  0  0
  3  6  1  0  0  0  0
  4 11  1  0  0  0  0
  4  5  1  0  0  0  0
  5 12  1  0  0  0  0
  6  7  2  0  0  0  0
  6 13  1  0  0  0  0
  7 14  1  0  0  0  0
  8 16  1  0  0  0  0
  8  7  1  0  0  0  0
  9  8  2  0  0  0  0
 10  9  1  0  0  0  0
 10  3  1  0  0  0  0
 11  2  1  0  0  0  0
 11 10  2  0  0  0  0
 12  1  2  0  0  0  0
 15  9  1  0  0  0  0
M  END
