1,2
 OpenBabel05122313053D

 34 36  0  0  1  0  0  0  0  0999 V2000
   -2.2812    0.9797   -0.3484 N   0  0  0  0  0  2  0  0  0  0  0  0
   -0.3936   -0.6759    0.3408 N   0  0  0  0  0  2  0  0  0  0  0  0
   -1.0393    1.4992   -0.1205 N   0  0  0  0  0  0  0  0  0  0  0  0
    1.8567   -1.4056    0.3594 N   0  0  0  0  0  0  0  0  0  0  0  0
    4.2310   -2.3093    0.3772 O   0  0  0  0  0  0  0  0  0  0  0  0
    3.2084   -2.2601    0.4215 H   0  0  0  0  0  0  0  0  0  0  0  0
   -3.1354    2.0044   -0.4004 C   0  0  2  0  0  3  0  0  0  0  0  0
   -2.4224    3.2230   -0.2061 C   0  0  0  0  0  0  0  0  0  0  0  0
   -2.8385    4.2356   -0.1821 H   0  0  0  0  0  0  0  0  0  0  0  0
   -1.0877    2.8839   -0.0235 C   0  0  0  0  0  0  0  0  0  0  0  0
    0.0136    0.5818    0.0606 C   0  0  2  0  0  3  0  0  0  0  0  0
    0.5463   -1.6221    0.4304 C   0  0  0  0  0  0  0  0  0  0  0  0
    0.1886   -2.6576    0.5555 H   0  0  0  0  0  0  0  0  0  0  0  0
    2.3103   -0.1358    0.1177 C   0  0  0  0  0  0  0  0  0  0  0  0
    1.3653    0.9027   -0.0805 C   0  0  0  0  0  0  0  0  0  0  0  0
    1.6864    1.9056   -0.3700 H   0  0  0  0  0  0  0  0  0  0  0  0
   -4.5924    1.7644   -0.6076 C   0  0  0  0  0  0  0  0  0  0  0  0
   -4.8048    1.4905   -1.6617 H   0  0  0  0  0  0  0  0  0  0  0  0
   -5.1823    2.6648   -0.3573 H   0  0  0  0  0  0  0  0  0  0  0  0
   -4.9092    0.9158    0.0363 H   0  0  0  0  0  0  0  0  0  0  0  0
    0.0777    3.7680    0.2705 C   0  0  0  0  0  0  0  0  0  0  0  0
   -0.2918    4.7828    0.5054 H   0  0  0  0  0  0  0  0  0  0  0  0
    0.7674    3.8605   -0.5947 H   0  0  0  0  0  0  0  0  0  0  0  0
    0.6660    3.4090    1.1391 H   0  0  0  0  0  0  0  0  0  0  0  0
    3.7554    0.0591    0.0488 C   0  0  0  0  0  0  0  0  0  0  0  0
    4.6510   -1.0651    0.1760 C   0  0  0  0  0  0  0  0  0  0  0  0
    6.0495   -0.8440    0.0831 C   0  0  0  0  0  0  0  0  0  0  0  0
    6.7049   -1.7212    0.1788 H   0  0  0  0  0  0  0  0  0  0  0  0
    6.5594    0.4340   -0.1165 C   0  0  0  0  0  0  0  0  0  0  0  0
    7.6487    0.5788   -0.1818 H   0  0  0  0  0  0  0  0  0  0  0  0
    5.6932    1.5461   -0.2316 C   0  0  0  0  0  0  0  0  0  0  0  0
    6.1003    2.5559   -0.3825 H   0  0  0  0  0  0  0  0  0  0  0  0
    4.3200    1.3489   -0.1493 C   0  0  0  0  0  0  0  0  0  0  0  0
    3.6561    2.2215   -0.2321 H   0  0  0  0  0  0  0  0  0  0  0  0
  1  3  1  0  0  0  0
  2 12  1  0  0  0  0
  3 10  1  0  0  0  0
  4 12  2  0  0  0  0
  5  6  1  0  0  0  0
  7 17  1  1  0  0  0
  7  1  1  0  0  0  0
  7  8  1  0  0  0  0
  8  9  1  0  0  0  0
  8 10  2  0  0  0  0
 10 21  1  0  0  0  0
 11  3  1  6  0  0  0
 11  2  1  0  0  0  0
 12 13  1  0  0  0  0
 14  4  1  0  0  0  0
 15 11  1  0  0  0  0
 15 14  2  0  0  0  0
 16 15  1  0  0  0  0
 17 19  1  0  0  0  0
 17 20  1  0  0  0  0
 18 17  1  0  0  0  0
 21 22  1  0  0  0  0
 21 24  1  0  0  0  0
 23 21  1  0  0  0  0
 25 14  1  0  0  0  0
 25 26  1  0  0  0  0
 26  5  1  0  0  0  0
 27 26  2  0  0  0  0
 27 28  1  0  0  0  0
 29 27  1  0  0  0  0
 30 29  1  0  0  0  0
 31 33  1  0  0  0  0
 31 29  2  0  0  0  0
 32 31  1  0  0  0  0
 33 25  2  0  0  0  0
 34 33  1  0  0  0  0
M  END
