2,3
 OpenBabel05122313053D

 26 28  0  0  0  0  0  0  0  0999 V2000
   -0.8801   -2.5946   -0.8747 C   0  0  0  0  0  0  0  0  0  0  0  0
   -0.8863   -1.3035   -0.4833 N   0  0  0  0  0  2  0  0  0  0  0  0
   -0.8755    1.2860   -0.4449 N   0  0  0  0  0  2  0  0  0  0  0  0
   -2.0477   -3.4048   -0.6738 C   0  0  0  0  0  0  0  0  0  0  0  0
   -1.9989   -4.4738   -0.9267 H   0  0  0  0  0  0  0  0  0  0  0  0
    0.2655   -3.0811   -1.4264 N   0  0  0  0  0  0  0  0  0  0  0  0
    0.8797   -2.3656   -1.8453 H   0  0  0  0  0  0  0  0  0  0  0  0
    0.2198   -3.9797   -1.9064 H   0  0  0  0  0  0  0  0  0  0  0  0
   -3.2184   -2.8429   -0.1985 C   0  0  0  0  0  0  0  0  0  0  0  0
   -4.1114   -3.4688   -0.0512 H   0  0  0  0  0  0  0  0  0  0  0  0
   -3.2908   -1.4355    0.0323 C   0  0  0  0  0  0  0  0  0  0  0  0
    0.2874    3.0628   -1.3792 N   0  0  0  0  0  0  0  0  0  0  0  0
    0.8825    2.3506   -1.8327 H   0  0  0  0  0  0  0  0  0  0  0  0
    0.2562    3.9828   -1.8175 H   0  0  0  0  0  0  0  0  0  0  0  0
   -2.0797   -0.7201   -0.1436 C   0  0  0  0  0  0  0  0  0  0  0  0
   -2.0752    0.7034   -0.1279 C   0  0  0  0  0  0  0  0  0  0  0  0
   -3.2800    1.4258    0.0599 C   0  0  0  0  0  0  0  0  0  0  0  0
   -3.1930    2.8372   -0.1402 C   0  0  0  0  0  0  0  0  0  0  0  0
   -4.0800    3.4686    0.0198 H   0  0  0  0  0  0  0  0  0  0  0  0
   -2.0172    3.3981   -0.6046 C   0  0  0  0  0  0  0  0  0  0  0  0
   -1.9602    4.4707   -0.8401 H   0  0  0  0  0  0  0  0  0  0  0  0
   -0.8556    2.5832   -0.8247 C   0  0  0  0  0  0  0  0  0  0  0  0
   -4.4811   -0.6945    0.3403 C   0  0  0  0  0  0  0  0  0  0  0  0
   -5.4155   -1.2464    0.5196 H   0  0  0  0  0  0  0  0  0  0  0  0
   -4.4761    0.6885    0.3530 C   0  0  0  0  0  0  0  0  0  0  0  0
   -5.4063    1.2440    0.5434 H   0  0  0  0  0  0  0  0  0  0  0  0
  1  4  2  0  0  0  0
  1  2  1  0  0  0  0
  2 15  1  0  0  0  0
  3 16  1  0  0  0  0
  4  9  1  0  0  0  0
  5  4  1  0  0  0  0
  6  1  1  0  0  0  0
  7  6  1  0  0  0  0
  8  6  1  0  0  0  0
  9 10  1  0  0  0  0
  9 11  2  0  0  0  0
 11 23  1  0  0  0  0
 12 22  1  0  0  0  0
 13 12  1  0  0  0  0
 14 12  1  0  0  0  0
 15 16  2  0  0  0  0
 15 11  1  0  0  0  0
 16 17  1  0  0  0  0
 17 25  1  0  0  0  0
 18 19  1  0  0  0  0
 18 17  2  0  0  0  0
 20 18  1  0  0  0  0
 21 20  1  0  0  0  0
 22 20  2  0  0  0  0
 22  3  1  0  0  0  0
 23 25  2  0  0  0  0
 23 24  1  0  0  0  0
 25 26  1  0  0  0  0
M  END
