5,8
 OpenBabel05122313053D

 44 47  0  0  0  0  0  0  0  0999 V2000
    4.9110   -1.7791    1.2968 S   0  0  0  0  0  0  0  0  0  0  0  0
    4.4828    1.6356    0.7858 S   0  0  0  0  0  0  0  0  0  0  0  0
    2.7440   -2.3684   -0.2095 N   0  0  0  0  0  0  0  0  0  0  0  0
    4.8166   -3.5015   -0.6601 N   0  0  0  0  0  0  0  0  0  0  0  0
   -1.2982   -1.5924   -0.7673 N   0  0  0  0  0  2  0  0  0  0  0  0
    2.2536    2.5467   -0.3756 N   0  0  0  0  0  0  0  0  0  0  0  0
    4.2547    3.8434   -0.6493 N   0  0  0  0  0  0  0  0  0  0  0  0
   -1.7317    1.6968   -0.6245 N   0  0  0  0  0  2  0  0  0  0  0  0
    4.0409   -2.6257    0.0150 C   0  0  0  0  0  0  0  0  0  0  0  0
    4.2063   -4.1804   -1.6344 C   0  0  0  0  0  0  0  0  0  0  0  0
    4.8230   -4.9110   -2.1882 H   0  0  0  0  0  0  0  0  0  0  0  0
    2.8538   -3.9958   -1.9650 C   0  0  0  0  0  0  0  0  0  0  0  0
    2.3894   -4.5813   -2.7689 H   0  0  0  0  0  0  0  0  0  0  0  0
    2.1411   -3.0395   -1.2132 C   0  0  0  0  0  0  0  0  0  0  0  0
    0.7175   -2.7068   -1.4854 C   0  0  0  0  0  0  0  0  0  0  0  0
    0.0567   -3.1022   -2.6667 C   0  0  0  0  0  0  0  0  0  0  0  0
    0.5860   -3.6847   -3.4351 H   0  0  0  0  0  0  0  0  0  0  0  0
   -1.2732   -2.7222   -2.8795 C   0  0  0  0  0  0  0  0  0  0  0  0
   -1.8031   -3.0037   -3.8008 H   0  0  0  0  0  0  0  0  0  0  0  0
   -1.9247   -1.9558   -1.9041 C   0  0  0  0  0  3  0  0  0  0  0  0
   -2.9602   -1.5880   -2.0178 H   0  0  0  0  0  0  0  0  0  0  0  0
   -0.0191   -1.9409   -0.5543 C   0  0  0  0  0  0  0  0  0  0  0  0
    0.4371   -1.5815    0.3825 H   0  0  0  0  0  0  0  0  0  0  0  0
    3.6051   -0.7202    2.0197 C   0  0  0  0  0  0  0  0  0  0  0  0
    2.7199   -1.3510    2.2356 H   0  0  0  0  0  0  0  0  0  0  0  0
    4.0389   -0.3885    2.9856 H   0  0  0  0  0  0  0  0  0  0  0  0
    3.1411    0.4486    1.1689 C   0  0  0  0  0  0  0  0  0  0  0  0
    2.3226    0.9738    1.6971 H   0  0  0  0  0  0  0  0  0  0  0  0
    2.7116    0.0850    0.2177 H   0  0  0  0  0  0  0  0  0  0  0  0
    3.5558    2.7881   -0.1747 C   0  0  0  0  0  0  0  0  0  0  0  0
    3.5510    4.7141   -1.3790 C   0  0  0  0  0  0  0  0  0  0  0  0
    4.1044    5.5873   -1.7694 H   0  0  0  0  0  0  0  0  0  0  0  0
    2.1791    4.5645   -1.6565 C   0  0  0  0  0  0  0  0  0  0  0  0
    1.6384    5.3150   -2.2486 H   0  0  0  0  0  0  0  0  0  0  0  0
    1.5528    3.4232   -1.1188 C   0  0  0  0  0  0  0  0  0  0  0  0
    0.1174    3.0894   -1.3108 C   0  0  0  0  0  0  0  0  0  0  0  0
   -0.7070    3.6826   -2.2867 C   0  0  0  0  0  0  0  0  0  0  0  0
   -0.3094    4.4581   -2.9588 H   0  0  0  0  0  0  0  0  0  0  0  0
   -2.0332    3.2511   -2.4231 C   0  0  0  0  0  0  0  0  0  0  0  0
   -2.6920    3.6816   -3.1910 H   0  0  0  0  0  0  0  0  0  0  0  0
   -2.5132    2.2393   -1.5792 C   0  0  0  0  0  3  0  0  0  0  0  0
   -3.5263    1.8111   -1.6662 H   0  0  0  0  0  0  0  0  0  0  0  0
   -0.4584    2.0946   -0.4898 C   0  0  0  0  0  0  0  0  0  0  0  0
    0.1381    1.5952    0.2914 H   0  0  0  0  0  0  0  0  0  0  0  0
  1 24  1  0  0  0  0
  2 27  1  0  0  0  0
  3  9  1  0  0  0  0
  4  9  2  0  0  0  0
  5 22  1  0  0  0  0
  6 30  1  0  0  0  0
  7 30  2  0  0  0  0
  8 43  1  0  0  0  0
  9  1  1  0  0  0  0
 10  4  1  0  0  0  0
 11 10  1  0  0  0  0
 12 10  2  0  0  0  0
 12 14  1  0  0  0  0
 13 12  1  0  0  0  0
 14  3  2  0  0  0  0
 15 14  1  0  0  0  0
 15 22  2  0  0  0  0
 16 15  1  0  0  0  0
 17 16  1  0  0  0  0
 18 16  2  0  0  0  0
 18 20  1  0  0  0  0
 19 18  1  0  0  0  0
 20  5  1  0  0  0  0
 21 20  1  0  0  0  0
 22 23  1  0  0  0  0
 24 25  1  0  0  0  0
 24 26  1  0  0  0  0
 27 28  1  0  0  0  0
 27 24  1  0  0  0  0
 29 27  1  0  0  0  0
 30  2  1  0  0  0  0
 31  7  1  0  0  0  0
 32 31  1  0  0  0  0
 33 31  2  0  0  0  0
 33 35  1  0  0  0  0
 34 33  1  0  0  0  0
 35  6  2  0  0  0  0
 36 35  1  0  0  0  0
 36 43  2  0  0  0  0
 37 36  1  0  0  0  0
 38 37  1  0  0  0  0
 39 37  2  0  0  0  0
 39 41  1  0  0  0  0
 40 39  1  0  0  0  0
 41  8  1  0  0  0  0
 42 41  1  0  0  0  0
 43 44  1  0  0  0  0
M  END
