1,2
 OpenBabel05122313053D

 39 43  0  0  0  0  0  0  0  0999 V2000
   -0.2631    0.1251    0.2185 N   0  0  0  0  0  2  0  0  0  0  0  0
   -2.7741    0.9927    0.2746 N   0  0  0  0  0  2  0  0  0  0  0  0
    0.7056    2.1244   -0.1238 N   0  0  0  0  0  0  0  0  0  0  0  0
   -2.1735    3.3146    0.5632 C   0  0  0  0  0  0  0  0  0  0  0  0
   -1.4053    4.0940    0.6303 H   0  0  0  0  0  0  0  0  0  0  0  0
    3.1565    1.3304   -0.1628 C   0  0  0  0  0  0  0  0  0  0  0  0
    1.7292    1.1821   -0.0400 C   0  0  0  0  0  0  0  0  0  0  0  0
   -1.8201    1.9792    0.2807 C   0  0  0  0  0  0  0  0  0  0  0  0
   -0.4776    1.4523    0.0864 C   0  0  0  0  0  0  0  0  0  0  0  0
    3.9300    0.1152   -0.0842 C   0  0  0  0  0  0  0  0  0  0  0  0
    5.9642    1.4376   -0.5005 C   0  0  0  0  0  0  0  0  0  0  0  0
    7.0535    1.4697   -0.6514 H   0  0  0  0  0  0  0  0  0  0  0  0
    1.2905   -2.4564    0.9086 C   0  0  0  0  0  0  0  0  0  0  0  0
    0.2067   -2.4993    1.0652 H   0  0  0  0  0  0  0  0  0  0  0  0
   -4.4781    2.6135    0.7612 C   0  0  0  0  0  0  0  0  0  0  0  0
   -5.5422    2.8199    0.9416 H   0  0  0  0  0  0  0  0  0  0  0  0
   -3.5154    3.6329    0.8021 C   0  0  0  0  0  0  0  0  0  0  0  0
   -3.8021    4.6702    1.0295 H   0  0  0  0  0  0  0  0  0  0  0  0
    3.8307    2.5709   -0.3345 C   0  0  0  0  0  0  0  0  0  0  0  0
    3.2705    3.5119   -0.3200 H   0  0  0  0  0  0  0  0  0  0  0  0
    1.8749   -1.2554    0.4421 C   0  0  0  0  0  0  0  0  0  0  0  0
    3.2956   -1.1657    0.2560 C   0  0  0  0  0  0  0  0  0  0  0  0
    5.3304    0.2166   -0.2839 C   0  0  0  0  0  0  0  0  0  0  0  0
    5.9436   -0.6936   -0.2613 H   0  0  0  0  0  0  0  0  0  0  0  0
    5.2114    2.6279   -0.5029 C   0  0  0  0  0  0  0  0  0  0  0  0
    5.7070    3.6010   -0.6354 H   0  0  0  0  0  0  0  0  0  0  0  0
    1.1027   -0.0626    0.1948 C   0  0  0  0  0  0  0  0  0  0  0  0
   -4.0659    1.3021    0.5007 C   0  0  0  0  0  0  0  0  0  0  0  0
   -4.7551    0.4417    0.4399 H   0  0  0  0  0  0  0  0  0  0  0  0
    0.8123    3.4858   -0.6272 C   0  0  0  0  0  0  0  0  0  0  0  0
    1.1183    4.2009    0.1635 H   0  0  0  0  0  0  0  0  0  0  0  0
   -0.1603    3.7966   -1.0454 H   0  0  0  0  0  0  0  0  0  0  0  0
    1.5538    3.5134   -1.4459 H   0  0  0  0  0  0  0  0  0  0  0  0
    2.0773   -3.5823    1.1337 C   0  0  0  0  0  0  0  0  0  0  0  0
    1.6075   -4.5125    1.4857 H   0  0  0  0  0  0  0  0  0  0  0  0
    3.4662   -3.5274    0.9008 C   0  0  0  0  0  0  0  0  0  0  0  0
    4.0907   -4.4180    1.0680 H   0  0  0  0  0  0  0  0  0  0  0  0
    4.0608   -2.3399    0.4799 C   0  0  0  0  0  0  0  0  0  0  0  0
    5.1500   -2.3198    0.3435 H   0  0  0  0  0  0  0  0  0  0  0  0
  2  8  1  0  0  0  0
  2 28  1  0  0  0  0
  3  7  1  0  0  0  0
  3  9  1  0  0  0  0
  4  5  1  0  0  0  0
  4 17  2  0  0  0  0
  6 10  1  0  0  0  0
  6  7  2  0  0  0  0
  7 27  1  0  0  0  0
  8  4  1  0  0  0  0
  9  1  1  0  0  0  0
  9  8  2  0  0  0  0
 10 22  2  0  0  0  0
 11 23  2  0  0  0  0
 12 11  1  0  0  0  0
 13 14  1  0  0  0  0
 13 34  2  0  0  0  0
 15 17  1  0  0  0  0
 15 16  1  0  0  0  0
 17 18  1  0  0  0  0
 19 20  1  0  0  0  0
 19  6  1  0  0  0  0
 21 13  1  0  0  0  0
 22 21  1  0  0  0  0
 22 38  1  0  0  0  0
 23 24  1  0  0  0  0
 23 10  1  0  0  0  0
 25 11  1  0  0  0  0
 25 19  2  0  0  0  0
 26 25  1  0  0  0  0
 27  1  1  0  0  0  0
 27 21  2  0  0  0  0
 28 15  2  0  0  0  0
 29 28  1  0  0  0  0
 30  3  1  0  0  0  0
 30 31  1  0  0  0  0
 32 30  1  0  0  0  0
 33 30  1  0  0  0  0
 34 35  1  0  0  0  0
 36 37  1  0  0  0  0
 36 34  1  0  0  0  0
 38 36  2  0  0  0  0
 39 38  1  0  0  0  0
M  END
