3,4
 OpenBabel05122313053D

 40 42  0  0  1  0  0  0  0  0999 V2000
    1.6949   -2.9130    1.2838 O   0  0  0  0  0  0  0  0  0  0  0  0
    2.8397    2.1071    0.7023 O   0  0  0  0  0  0  0  0  0  0  0  0
    0.2403   -1.2393    0.9217 N   0  0  0  0  0  2  0  0  0  0  0  0
    0.7554    1.3927    0.2575 N   0  0  0  0  0  2  0  0  0  0  0  0
    1.4790   -0.7393    3.6479 C   0  0  0  0  0  0  0  0  0  0  0  0
    0.0184   -1.1304    3.4239 C   0  0  0  0  0  0  0  0  0  0  0  0
   -0.2668   -1.9360    2.1424 C   0  0  2  0  0  0  0  0  0  0  0  0
    0.5108   -3.2605    2.0634 C   0  0  0  0  0  0  0  0  0  0  0  0
    1.3871   -1.7849    0.6211 C   0  0  1  0  0  3  0  0  0  0  0  0
    2.4045   -1.3186   -0.3365 C   0  0  0  0  0  0  0  0  0  0  0  0
    3.1630   -2.2956   -1.0152 C   0  0  0  0  0  0  0  0  0  0  0  0
    4.2279   -1.9301   -1.8482 C   0  0  0  0  0  0  0  0  0  0  0  0
    4.5835   -0.5786   -1.9711 C   0  0  0  0  0  0  0  0  0  0  0  0
    3.8570    0.4000   -1.2806 C   0  0  0  0  0  0  0  0  0  0  0  0
    2.7449    0.0529   -0.4862 C   0  0  0  0  0  0  0  0  0  0  0  0
    2.0373    1.1675    0.1799 C   0  0  1  0  0  3  0  0  0  0  0  0
    1.9918    3.1820    1.1991 C   0  0  0  0  0  0  0  0  0  0  0  0
    0.5456    2.6868    0.9639 C   0  0  1  0  0  0  0  0  0  0  0  0
   -0.3301    3.6603    0.1736 C   0  0  0  0  0  0  0  0  0  0  0  0
   -0.5981    4.9535    0.9437 C   0  0  0  0  0  0  0  0  0  0  0  0
    1.5890   -0.2068    4.6125 H   0  0  0  0  0  0  0  0  0  0  0  0
    1.8446   -0.0529    2.8564 H   0  0  0  0  0  0  0  0  0  0  0  0
    2.1646   -1.6106    3.6764 H   0  0  0  0  0  0  0  0  0  0  0  0
   -0.3459   -1.7550    4.2684 H   0  0  0  0  0  0  0  0  0  0  0  0
   -0.6228   -0.2290    3.3967 H   0  0  0  0  0  0  0  0  0  0  0  0
   -1.3573   -2.0880    2.0403 H   0  0  0  0  0  0  0  0  0  0  0  0
   -0.0268   -4.0628    1.5155 H   0  0  0  0  0  0  0  0  0  0  0  0
    0.8505   -3.6434    3.0431 H   0  0  0  0  0  0  0  0  0  0  0  0
    2.9145   -3.3555   -0.8650 H   0  0  0  0  0  0  0  0  0  0  0  0
    4.7981   -2.7058   -2.3798 H   0  0  0  0  0  0  0  0  0  0  0  0
    5.4375   -0.2834   -2.5981 H   0  0  0  0  0  0  0  0  0  0  0  0
    4.1436    1.4581   -1.3565 H   0  0  0  0  0  0  0  0  0  0  0  0
    2.2492    3.3473    2.2619 H   0  0  0  0  0  0  0  0  0  0  0  0
    2.2378    4.0957    0.6197 H   0  0  0  0  0  0  0  0  0  0  0  0
    0.0240    2.4474    1.9141 H   0  0  0  0  0  0  0  0  0  0  0  0
    0.1598    3.8751   -0.8026 H   0  0  0  0  0  0  0  0  0  0  0  0
   -1.2891    3.1471   -0.0371 H   0  0  0  0  0  0  0  0  0  0  0  0
   -1.2425    5.6365    0.3573 H   0  0  0  0  0  0  0  0  0  0  0  0
    0.3345    5.5073    1.1789 H   0  0  0  0  0  0  0  0  0  0  0  0
   -1.1172    4.7420    1.9006 H   0  0  0  0  0  0  0  0  0  0  0  0
  1  8  1  0  0  0  0
  2 17  1  0  0  0  0
  3  7  1  0  0  0  0
  4 18  1  0  0  0  0
  5 23  1  0  0  0  0
  5 21  1  0  0  0  0
  6  5  1  0  0  0  0
  6 24  1  0  0  0  0
  7 26  1  6  0  0  0
  7  6  1  0  0  0  0
  8  7  1  0  0  0  0
  8 28  1  0  0  0  0
  9 10  1  1  0  0  0
  9  3  1  0  0  0  0
  9  1  1  0  0  0  0
 11 29  1  0  0  0  0
 11 10  2  0  0  0  0
 12 11  1  0  0  0  0
 13 12  2  0  0  0  0
 13 14  1  0  0  0  0
 14 15  2  0  0  0  0
 15 10  1  0  0  0  0
 16 15  1  6  0  0  0
 16  4  1  0  0  0  0
 16  2  1  0  0  0  0
 17 33  1  0  0  0  0
 18 17  1  0  0  0  0
 18 35  1  1  0  0  0
 19 20  1  0  0  0  0
 19 18  1  0  0  0  0
 20 39  1  0  0  0  0
 20 40  1  0  0  0  0
 22  5  1  0  0  0  0
 25  6  1  0  0  0  0
 27  8  1  0  0  0  0
 30 12  1  0  0  0  0
 31 13  1  0  0  0  0
 32 14  1  0  0  0  0
 34 17  1  0  0  0  0
 36 19  1  0  0  0  0
 37 19  1  0  0  0  0
 38 20  1  0  0  0  0
M  END
