7,10
 OpenBabel05122313053D

 33 34  0  0  1  0  0  0  0  0999 V2000
   -1.1930   -2.0776    1.1073 O   0  0  0  0  0  0  0  0  0  0  0  0
    3.4363    1.6149    0.9590 N   0  0  0  0  0  0  0  0  0  0  0  0
   -3.9771    0.6196   -0.1152 N   0  0  0  0  0  0  0  0  0  0  0  0
   -3.2956   -1.6153    0.3392 N   0  0  0  0  0  0  0  0  0  0  0  0
   -5.4840   -1.1004   -0.1990 O   0  0  0  0  0  0  0  0  0  0  0  0
   -2.4234    2.3733   -0.1571 N   0  0  0  0  0  0  0  0  0  0  0  0
   -0.3644    0.5940    0.4316 N   0  0  0  0  0  2  0  0  0  0  0  0
   -1.6373    0.1524    0.3305 C   0  0  1  0  0  3  0  0  0  0  0  0
    1.2525    2.3440    0.6947 C   0  0  2  0  0  3  0  0  0  0  0  0
    2.1424    1.3706    0.6201 N   0  0  0  0  0  2  0  0  0  0  0  0
   -1.9676   -1.2594    0.6264 C   0  0  0  0  0  0  0  0  0  0  0  0
   -3.6339   -3.0265    0.5277 C   0  0  0  0  0  0  0  0  0  0  0  0
   -4.6576   -3.1823    0.1503 H   0  0  0  0  0  0  0  0  0  0  0  0
   -3.5740   -3.2954    1.6007 H   0  0  0  0  0  0  0  0  0  0  0  0
   -2.9019   -3.6489   -0.0204 H   0  0  0  0  0  0  0  0  0  0  0  0
   -1.1833    2.8288    0.0263 C   0  0  0  0  0  0  0  0  0  0  0  0
   -2.6765    1.0685    0.0354 C   0  0  0  0  0  0  0  0  0  0  0  0
    1.6566    3.6997    1.1926 C   0  0  0  0  0  0  0  0  0  0  0  0
    2.3770    3.5724    2.0286 H   0  0  0  0  0  0  0  0  0  0  0  0
    0.7996    4.2771    1.5745 H   0  0  0  0  0  0  0  0  0  0  0  0
    2.1578    4.3138    0.4120 H   0  0  0  0  0  0  0  0  0  0  0  0
   -0.1210    1.9397    0.3950 C   0  0  0  0  0  0  0  0  0  0  0  0
   -0.9736    4.2822   -0.3031 C   0  0  0  0  0  0  0  0  0  0  0  0
   -1.8208    4.6160   -0.9289 H   0  0  0  0  0  0  0  0  0  0  0  0
   -0.0278    4.4424   -0.8537 H   0  0  0  0  0  0  0  0  0  0  0  0
   -0.9590    4.9203    0.6044 H   0  0  0  0  0  0  0  0  0  0  0  0
   -4.3329   -0.7349   -0.0108 C   0  0  0  0  0  0  0  0  0  0  0  0
   -5.0670    1.5380   -0.4487 C   0  0  0  0  0  0  0  0  0  0  0  0
   -4.6418    2.5514   -0.5264 H   0  0  0  0  0  0  0  0  0  0  0  0
   -5.8460    1.4964    0.3363 H   0  0  0  0  0  0  0  0  0  0  0  0
   -5.5313    1.2349   -1.4062 H   0  0  0  0  0  0  0  0  0  0  0  0
    4.0389    0.8482    0.6485 H   0  0  0  0  0  0  0  0  0  0  0  0
    3.7921    2.5357    0.6742 H   0  0  0  0  0  0  0  0  0  0  0  0
  3 27  1  0  0  0  0
  3 17  1  0  0  0  0
  4 12  1  0  0  0  0
  4 11  1  0  0  0  0
  5 27  2  0  0  0  0
  6 16  1  0  0  0  0
  6 17  2  0  0  0  0
  8 17  1  1  0  0  0
  8  7  1  0  0  0  0
  8 11  1  0  0  0  0
  9 10  1  1  0  0  0
  9 18  1  0  0  0  0
 10  2  1  0  0  0  0
 11  1  2  0  0  0  0
 12 14  1  0  0  0  0
 13 12  1  0  0  0  0
 15 12  1  0  0  0  0
 16 22  2  0  0  0  0
 18 20  1  0  0  0  0
 18 19  1  0  0  0  0
 21 18  1  0  0  0  0
 22  7  1  0  0  0  0
 22  9  1  0  0  0  0
 23 16  1  0  0  0  0
 23 26  1  0  0  0  0
 24 23  1  0  0  0  0
 25 23  1  0  0  0  0
 27  4  1  0  0  0  0
 28  3  1  0  0  0  0
 28 30  1  0  0  0  0
 29 28  1  0  0  0  0
 31 28  1  0  0  0  0
 32  2  1  0  0  0  0
 33  2  1  0  0  0  0
M  END
