1,20
 OpenBabel05122313053D

 20 21  0  0  0  0  0  0  0  0999 V2000
    0.7006   -1.7819    0.2674 N   0  0  0  0  0  2  0  0  0  0  0  0
    0.4450   -2.9787    1.0720 C   0  0  0  0  0  0  0  0  0  0  0  0
   -0.4920   -3.4716    0.7334 H   0  0  0  0  0  0  0  0  0  0  0  0
    0.2785   -2.6930    2.1281 H   0  0  0  0  0  0  0  0  0  0  0  0
    1.7104   -3.8576    0.8543 C   0  0  0  0  0  0  0  0  0  0  0  0
    2.3786   -3.8293    1.7427 H   0  0  0  0  0  0  0  0  0  0  0  0
    1.4634   -4.9168    0.6426 H   0  0  0  0  0  0  0  0  0  0  0  0
    2.3612   -3.2185   -0.3116 N   0  0  0  0  0  0  0  0  0  0  0  0
    3.3771   -3.2944   -0.3927 H   0  0  0  0  0  0  0  0  0  0  0  0
    1.7942   -1.9678   -0.4374 C   0  0  0  0  0  0  0  0  0  0  0  0
    2.1968   -0.8557   -1.2761 C   0  0  0  0  0  0  0  0  0  0  0  0
    3.2508   -0.8407   -2.2038 C   0  0  0  0  0  0  0  0  0  0  0  0
    3.8670   -1.7407   -2.3432 H   0  0  0  0  0  0  0  0  0  0  0  0
    3.4889    0.3216   -2.9448 C   0  0  0  0  0  0  0  0  0  0  0  0
    4.3110    0.3626   -3.6736 H   0  0  0  0  0  0  0  0  0  0  0  0
    2.6518    1.4345   -2.7378 C   0  0  0  0  0  0  0  0  0  0  0  0
    2.8039    2.3722   -3.2904 H   0  0  0  0  0  0  0  0  0  0  0  0
    1.6137    1.3490   -1.8054 C   0  0  0  0  0  0  0  0  0  0  0  0
    0.9411    2.1965   -1.6101 H   0  0  0  0  0  0  0  0  0  0  0  0
    1.3788    0.2364   -1.0787 N   0  0  0  0  0  2  0  0  0  0  0  0
  1  2  1  0  0  0  0
  2  4  1  0  0  0  0
  3  2  1  0  0  0  0
  5  2  1  0  0  0  0
  5  6  1  0  0  0  0
  7  5  1  0  0  0  0
  8  5  1  0  0  0  0
  9  8  1  0  0  0  0
 10  8  1  0  0  0  0
 10  1  1  0  0  0  0
 11 20  1  0  0  0  0
 11 10  2  0  0  0  0
 12 11  1  0  0  0  0
 13 12  1  0  0  0  0
 14 16  1  0  0  0  0
 14 12  2  0  0  0  0
 15 14  1  0  0  0  0
 16 18  2  0  0  0  0
 17 16  1  0  0  0  0
 18 19  1  0  0  0  0
 18 20  1  0  0  0  0
M  END
