1,3
 OpenBabel05122313053D

 35 37  0  0  0  0  0  0  0  0999 V2000
    4.0714   -1.6483   -0.0350 N   0  0  0  0  0  2  0  0  0  0  0  0
    2.0354   -2.7278   -0.4599 N   0  0  0  0  0  2  0  0  0  0  0  0
    1.5713   -1.5691   -0.0534 N   0  0  0  0  0  2  0  0  0  0  0  0
   -3.9151   -1.3719    1.1681 N   0  0  0  0  0  0  0  0  0  0  0  0
   -4.1235   -0.5394    1.7218 H   0  0  0  0  0  0  0  0  0  0  0  0
    5.3928   -1.7224    0.1977 C   0  0  0  0  0  3  0  0  0  0  0  0
    5.8541   -0.8273    0.6396 H   0  0  0  0  0  0  0  0  0  0  0  0
    6.1402   -2.8675   -0.0952 C   0  0  0  0  0  0  0  0  0  0  0  0
    7.2202   -2.8810    0.1055 H   0  0  0  0  0  0  0  0  0  0  0  0
    5.4792   -3.9835   -0.6482 C   0  0  0  0  0  0  0  0  0  0  0  0
    6.0434   -4.8915   -0.9084 H   0  0  0  0  0  0  0  0  0  0  0  0
    4.0993   -3.9381   -0.8349 C   0  0  0  0  0  0  0  0  0  0  0  0
    3.5237   -4.7906   -1.2192 H   0  0  0  0  0  0  0  0  0  0  0  0
    3.4007   -2.7584   -0.4858 C   0  0  0  0  0  0  0  0  0  0  0  0
    0.1951   -1.5970    0.2654 C   0  0  0  0  0  0  0  0  0  0  0  0
   -0.7125   -2.3969   -0.4610 C   0  0  0  0  0  0  0  0  0  0  0  0
   -0.3251   -3.0128   -1.2836 H   0  0  0  0  0  0  0  0  0  0  0  0
   -2.0777   -2.3512   -0.1825 C   0  0  0  0  0  0  0  0  0  0  0  0
   -2.7734   -2.9135   -0.8175 H   0  0  0  0  0  0  0  0  0  0  0  0
   -2.5684   -1.5325    0.8697 C   0  0  0  0  0  0  0  0  0  0  0  0
   -1.6337   -0.7853    1.6329 C   0  0  0  0  0  0  0  0  0  0  0  0
   -1.9956   -0.1683    2.4699 H   0  0  0  0  0  0  0  0  0  0  0  0
   -0.2773   -0.8022    1.3326 C   0  0  0  0  0  0  0  0  0  0  0  0
    0.4513   -0.2322    1.9281 H   0  0  0  0  0  0  0  0  0  0  0  0
   -5.0369   -2.1231    0.8123 C   0  0  0  0  0  0  0  0  0  0  0  0
   -4.9782   -3.4821    0.4208 C   0  0  0  0  0  0  0  0  0  0  0  0
   -4.0182   -4.0132    0.4120 H   0  0  0  0  0  0  0  0  0  0  0  0
   -6.1545   -4.1696    0.0911 C   0  0  0  0  0  0  0  0  0  0  0  0
   -6.0859   -5.2268   -0.2080 H   0  0  0  0  0  0  0  0  0  0  0  0
   -7.4069   -3.5394    0.1561 C   0  0  0  0  0  0  0  0  0  0  0  0
   -8.3230   -4.0887   -0.1052 H   0  0  0  0  0  0  0  0  0  0  0  0
   -7.4725   -2.2006    0.5773 C   0  0  0  0  0  0  0  0  0  0  0  0
   -8.4449   -1.6900    0.6529 H   0  0  0  0  0  0  0  0  0  0  0  0
   -6.3065   -1.4989    0.9002 C   0  0  0  0  0  0  0  0  0  0  0  0
   -6.3676   -0.4467    1.2198 H   0  0  0  0  0  0  0  0  0  0  0  0
  1  6  1  0  0  0  0
  2  3  1  0  0  0  0
  3 15  1  0  0  0  0
  4  5  1  0  0  0  0
  6  7  1  0  0  0  0
  8  9  1  0  0  0  0
  8  6  1  0  0  0  0
 10  8  2  0  0  0  0
 11 10  1  0  0  0  0
 12 10  1  0  0  0  0
 12 14  2  0  0  0  0
 13 12  1  0  0  0  0
 14  2  1  0  0  0  0
 14  1  1  0  0  0  0
 15 23  1  0  0  0  0
 16 18  1  0  0  0  0
 16 15  2  0  0  0  0
 17 16  1  0  0  0  0
 18 20  2  0  0  0  0
 19 18  1  0  0  0  0
 20  4  1  0  0  0  0
 20 21  1  0  0  0  0
 21 22  1  0  0  0  0
 23 21  2  0  0  0  0
 23 24  1  0  0  0  0
 25 34  1  0  0  0  0
 25  4  1  0  0  0  0
 26 25  2  0  0  0  0
 27 26  1  0  0  0  0
 28 30  2  0  0  0  0
 28 26  1  0  0  0  0
 29 28  1  0  0  0  0
 30 32  1  0  0  0  0
 31 30  1  0  0  0  0
 32 33  1  0  0  0  0
 32 34  2  0  0  0  0
 34 35  1  0  0  0  0
M  END
