2,3
 OpenBabel05122313053D

 34 36  0  0  1  0  0  0  0  0999 V2000
   -0.6404    2.9512    0.0359 O   0  0  0  0  0  0  0  0  0  0  0  0
    0.8041    0.5864    0.8516 N   0  0  1  0  0  0  0  0  0  0  0  0
   -1.6441    0.3930   -0.7940 N   0  0  0  0  0  0  0  0  0  0  0  0
   -2.6498   -0.3794   -1.5382 C   0  0  0  0  0  0  0  0  0  0  0  0
   -3.3864    0.2892   -2.0415 H   0  0  0  0  0  0  0  0  0  0  0  0
   -3.1811   -1.0458   -0.8309 H   0  0  0  0  0  0  0  0  0  0  0  0
   -2.1331   -1.0084   -2.2889 H   0  0  0  0  0  0  0  0  0  0  0  0
   -0.8542    1.2636   -1.6920 C   0  0  0  0  0  0  0  0  0  0  0  0
   -1.5422    1.9145   -2.2826 H   0  0  0  0  0  0  0  0  0  0  0  0
   -0.3024    0.6088   -2.3971 H   0  0  0  0  0  0  0  0  0  0  0  0
    0.1022    2.1826   -0.9144 C   0  0  2  0  0  0  0  0  0  0  0  0
    0.5213    2.9123   -1.6369 H   0  0  0  0  0  0  0  0  0  0  0  0
    1.2985    1.5142   -0.2067 C   0  0  2  0  0  0  0  0  0  0  0  0
    1.8295    2.3523    0.3134 H   0  0  0  0  0  0  0  0  0  0  0  0
    2.2884    0.8218   -1.1437 C   0  0  0  0  0  0  0  0  0  0  0  0
    2.6561    1.5675   -1.8789 H   0  0  0  0  0  0  0  0  0  0  0  0
    1.7726    0.0152   -1.7066 H   0  0  0  0  0  0  0  0  0  0  0  0
    3.4503    0.2050   -0.3568 C   0  0  0  0  0  0  0  0  0  0  0  0
    4.1249   -0.3458   -1.0428 H   0  0  0  0  0  0  0  0  0  0  0  0
    4.0577    1.0114    0.1127 H   0  0  0  0  0  0  0  0  0  0  0  0
    2.9114   -0.7318    0.7296 C   0  0  0  0  0  0  0  0  0  0  0  0
    2.4091   -1.5995    0.2488 H   0  0  0  0  0  0  0  0  0  0  0  0
    3.7324   -1.1378    1.3546 H   0  0  0  0  0  0  0  0  0  0  0  0
    1.9182   -0.0076    1.6336 C   0  0  0  0  0  0  0  0  0  0  0  0
    1.4574   -0.7009    2.3671 H   0  0  0  0  0  0  0  0  0  0  0  0
    2.4314    0.8066    2.2030 H   0  0  0  0  0  0  0  0  0  0  0  0
   -0.1170    1.3148    1.7582 C   0  0  0  0  0  0  0  0  0  0  0  0
    0.4680    2.0646    2.3410 H   0  0  0  0  0  0  0  0  0  0  0  0
   -0.5618    0.5744    2.4543 H   0  0  0  0  0  0  0  0  0  0  0  0
   -1.2189    2.0585    0.9939 C   0  0  2  0  0  0  0  0  0  0  0  0
   -1.7560    2.6971    1.7240 H   0  0  0  0  0  0  0  0  0  0  0  0
   -2.2561    1.1660    0.3052 C   0  0  0  0  0  0  0  0  0  0  0  0
   -2.6862    0.4434    1.0292 H   0  0  0  0  0  0  0  0  0  0  0  0
   -3.0699    1.8173   -0.0939 H   0  0  0  0  0  0  0  0  0  0  0  0
  1 30  1  0  0  0  0
  2 24  1  1  0  0  0
  2 27  1  0  0  0  0
  3 32  1  0  0  0  0
  4  6  1  0  0  0  0
  4  3  1  0  0  0  0
  5  4  1  0  0  0  0
  7  4  1  0  0  0  0
  8 11  1  0  0  0  0
  8  3  1  0  0  0  0
  9  8  1  0  0  0  0
 10  8  1  0  0  0  0
 11 12  1  6  0  0  0
 11 13  1  0  0  0  0
 11  1  1  0  0  0  0
 13 14  1  1  0  0  0
 13  2  1  0  0  0  0
 15 18  1  0  0  0  0
 15 13  1  0  0  0  0
 16 15  1  0  0  0  0
 17 15  1  0  0  0  0
 18 20  1  0  0  0  0
 18 21  1  0  0  0  0
 19 18  1  0  0  0  0
 21 23  1  0  0  0  0
 21 24  1  0  0  0  0
 22 21  1  0  0  0  0
 24 26  1  0  0  0  0
 24 25  1  0  0  0  0
 27 28  1  0  0  0  0
 27 29  1  0  0  0  0
 30 31  1  1  0  0  0
 30 27  1  0  0  0  0
 32 30  1  0  0  0  0
 32 33  1  0  0  0  0
 34 32  1  0  0  0  0
M  END
