3,4
 OpenBabel05122313053D

 71 74  0  0  1  0  0  0  0  0999 V2000
   -0.2649   -2.7879   -0.6351 N   0  0  0  0  0  0  0  0  0  0  0  0
    1.8396   -2.1462   -0.7252 N   0  0  0  0  0  0  0  0  0  0  0  0
    0.2146   -0.4103   -0.3004 N   0  0  0  0  0  2  0  0  0  0  0  0
   -0.8666    1.5290   -0.4049 N   0  0  0  0  0  2  0  0  0  0  0  0
    0.5556   -1.6732   -0.5599 C   0  0  2  0  0  3  0  0  0  0  0  0
    0.5082   -3.9266   -0.8497 C   0  0  0  0  0  0  0  0  0  0  0  0
    0.0503   -4.9159   -0.9291 H   0  0  0  0  0  0  0  0  0  0  0  0
    1.8136   -3.5260   -0.9042 C   0  0  0  0  0  0  0  0  0  0  0  0
    2.7351   -4.0894   -1.0696 H   0  0  0  0  0  0  0  0  0  0  0  0
   -1.6488   -2.8050   -0.2444 C   0  0  0  0  0  0  0  0  0  0  0  0
   -2.6578   -2.9799   -1.2152 C   0  0  0  0  0  0  0  0  0  0  0  0
   -3.9937   -2.9144   -0.7778 C   0  0  0  0  0  0  0  0  0  0  0  0
   -4.7998   -3.0299   -1.5201 H   0  0  0  0  0  0  0  0  0  0  0  0
   -4.3251   -2.7002    0.5724 C   0  0  0  0  0  0  0  0  0  0  0  0
   -3.2820   -2.6181    1.5145 C   0  0  0  0  0  0  0  0  0  0  0  0
   -3.5223   -2.4936    2.5816 H   0  0  0  0  0  0  0  0  0  0  0  0
   -1.9310   -2.6883    1.1384 C   0  0  0  0  0  0  0  0  0  0  0  0
   -2.3411   -3.2829   -2.6587 C   0  0  0  0  0  0  0  0  0  0  0  0
   -1.3244   -2.9587   -2.9478 H   0  0  0  0  0  0  0  0  0  0  0  0
   -3.0674   -2.7986   -3.3402 H   0  0  0  0  0  0  0  0  0  0  0  0
   -2.4010   -4.3762   -2.8484 H   0  0  0  0  0  0  0  0  0  0  0  0
   -5.7601   -2.5396    1.0019 C   0  0  0  0  0  0  0  0  0  0  0  0
   -5.9402   -2.9811    2.0018 H   0  0  0  0  0  0  0  0  0  0  0  0
   -6.4617   -3.0035    0.2816 H   0  0  0  0  0  0  0  0  0  0  0  0
   -6.0215   -1.4617    1.0727 H   0  0  0  0  0  0  0  0  0  0  0  0
   -0.8252   -2.6825    2.1568 C   0  0  0  0  0  0  0  0  0  0  0  0
   -0.1136   -3.5159    1.9791 H   0  0  0  0  0  0  0  0  0  0  0  0
   -1.2342   -2.7851    3.1784 H   0  0  0  0  0  0  0  0  0  0  0  0
   -0.2495   -1.7345    2.1401 H   0  0  0  0  0  0  0  0  0  0  0  0
    3.0507   -1.3675   -0.7239 C   0  0  0  0  0  0  0  0  0  0  0  0
    3.9436   -1.5277    0.3599 C   0  0  0  0  0  0  0  0  0  0  0  0
    5.1194   -0.7604    0.3470 C   0  0  0  0  0  0  0  0  0  0  0  0
    5.8137   -0.8495    1.1974 H   0  0  0  0  0  0  0  0  0  0  0  0
    5.4260    0.1217   -0.7043 C   0  0  0  0  0  0  0  0  0  0  0  0
    4.5280    0.2126   -1.7809 C   0  0  0  0  0  0  0  0  0  0  0  0
    4.7511    0.8968   -2.6147 H   0  0  0  0  0  0  0  0  0  0  0  0
    3.3255   -0.5116   -1.8113 C   0  0  0  0  0  0  0  0  0  0  0  0
    3.6699   -2.4938    1.4837 C   0  0  0  0  0  0  0  0  0  0  0  0
    2.6034   -2.4905    1.7776 H   0  0  0  0  0  0  0  0  0  0  0  0
    4.2608   -2.2231    2.3783 H   0  0  0  0  0  0  0  0  0  0  0  0
    3.9450   -3.5336    1.2037 H   0  0  0  0  0  0  0  0  0  0  0  0
    6.6569    0.9882   -0.6539 C   0  0  0  0  0  0  0  0  0  0  0  0
    6.4088    1.9736   -0.2041 H   0  0  0  0  0  0  0  0  0  0  0  0
    7.0637    1.1842   -1.6656 H   0  0  0  0  0  0  0  0  0  0  0  0
    7.4561    0.5353   -0.0354 H   0  0  0  0  0  0  0  0  0  0  0  0
    2.3525   -0.3105   -2.9397 C   0  0  0  0  0  0  0  0  0  0  0  0
    2.8754   -0.0019   -3.8649 H   0  0  0  0  0  0  0  0  0  0  0  0
    1.6430    0.5006   -2.6704 H   0  0  0  0  0  0  0  0  0  0  0  0
    1.7629   -1.2219   -3.1627 H   0  0  0  0  0  0  0  0  0  0  0  0
   -0.6864    0.3517   -0.9719 C   0  0  1  0  0  3  0  0  0  0  0  0
   -1.3294   -0.0457   -2.2702 C   0  0  0  0  0  0  0  0  0  0  0  0
   -2.2758   -0.5885   -2.0857 H   0  0  0  0  0  0  0  0  0  0  0  0
   -0.6592   -0.7049   -2.8520 H   0  0  0  0  0  0  0  0  0  0  0  0
   -1.5663    0.8581   -2.8621 H   0  0  0  0  0  0  0  0  0  0  0  0
   -1.8745    2.4513   -0.7772 C   0  0  0  0  0  0  0  0  0  0  0  0
   -3.2524    2.1038   -0.6650 C   0  0  0  0  0  0  0  0  0  0  0  0
   -4.2167    3.0720   -1.0100 C   0  0  0  0  0  0  0  0  0  0  0  0
   -5.2823    2.8090   -0.9151 H   0  0  0  0  0  0  0  0  0  0  0  0
   -3.8490    4.3450   -1.4545 C   0  0  0  0  0  0  0  0  0  0  0  0
   -4.6199    5.0863   -1.7143 H   0  0  0  0  0  0  0  0  0  0  0  0
   -2.4910    4.6710   -1.5640 C   0  0  0  0  0  0  0  0  0  0  0  0
   -2.1899    5.6686   -1.9202 H   0  0  0  0  0  0  0  0  0  0  0  0
   -1.4871    3.7468   -1.2281 C   0  0  0  0  0  0  0  0  0  0  0  0
   -3.7277    0.7506   -0.1995 C   0  0  0  0  0  0  0  0  0  0  0  0
   -2.9603    0.2023    0.3758 H   0  0  0  0  0  0  0  0  0  0  0  0
   -4.0492    0.1157   -1.0541 H   0  0  0  0  0  0  0  0  0  0  0  0
   -4.6111    0.8620    0.4602 H   0  0  0  0  0  0  0  0  0  0  0  0
   -0.0398    4.1271   -1.3585 C   0  0  0  0  0  0  0  0  0  0  0  0
    0.0678    5.0876   -1.8977 H   0  0  0  0  0  0  0  0  0  0  0  0
    0.5505    3.3497   -1.8819 H   0  0  0  0  0  0  0  0  0  0  0  0
    0.4350    4.2290   -0.3607 H   0  0  0  0  0  0  0  0  0  0  0  0
  1  5  1  0  0  0  0
  1 10  1  0  0  0  0
  2 30  1  0  0  0  0
  2  5  1  0  0  0  0
  5  3  1  1  0  0  0
  6  1  1  0  0  0  0
  7  6  1  0  0  0  0
  8  6  2  0  0  0  0
  8  2  1  0  0  0  0
  9  8  1  0  0  0  0
 10 17  1  0  0  0  0
 11 12  1  0  0  0  0
 11 10  2  0  0  0  0
 12 14  2  0  0  0  0
 13 12  1  0  0  0  0
 14 22  1  0  0  0  0
 14 15  1  0  0  0  0
 15 16  1  0  0  0  0
 17 15  2  0  0  0  0
 17 26  1  0  0  0  0
 18 11  1  0  0  0  0
 19 18  1  0  0  0  0
 20 18  1  0  0  0  0
 21 18  1  0  0  0  0
 22 25  1  0  0  0  0
 22 23  1  0  0  0  0
 24 22  1  0  0  0  0
 26 28  1  0  0  0  0
 27 26  1  0  0  0  0
 29 26  1  0  0  0  0
 30 31  1  0  0  0  0
 31 38  1  0  0  0  0
 32 31  2  0  0  0  0
 32 33  1  0  0  0  0
 34 42  1  0  0  0  0
 34 32  1  0  0  0  0
 35 34  2  0  0  0  0
 36 35  1  0  0  0  0
 37 35  1  0  0  0  0
 37 30  2  0  0  0  0
 38 39  1  0  0  0  0
 38 40  1  0  0  0  0
 41 38  1  0  0  0  0
 42 43  1  0  0  0  0
 42 45  1  0  0  0  0
 44 42  1  0  0  0  0
 46 48  1  0  0  0  0
 46 37  1  0  0  0  0
 47 46  1  0  0  0  0
 49 46  1  0  0  0  0
 50  4  1  6  0  0  0
 50  3  1  0  0  0  0
 51 52  1  0  0  0  0
 51 50  1  0  0  0  0
 53 51  1  0  0  0  0
 54 51  1  0  0  0  0
 55 56  1  0  0  0  0
 55  4  1  0  0  0  0
 56 64  1  0  0  0  0
 57 58  1  0  0  0  0
 57 56  2  0  0  0  0
 59 57  1  0  0  0  0
 60 59  1  0  0  0  0
 61 59  2  0  0  0  0
 61 63  1  0  0  0  0
 62 61  1  0  0  0  0
 63 55  2  0  0  0  0
 64 65  1  0  0  0  0
 64 67  1  0  0  0  0
 66 64  1  0  0  0  0
 68 63  1  0  0  0  0
 68 71  1  0  0  0  0
 69 68  1  0  0  0  0
 70 68  1  0  0  0  0
M  END
