1,3
 OpenBabel05122313053D

 30 31  0  0  1  0  0  0  0  0999 V2000
   -0.4633   -1.9986   -1.0387 N   0  0  0  0  0  2  0  0  0  0  0  0
   -1.8264   -2.0757   -1.0040 N   0  0  0  0  0  0  0  0  0  0  0  0
   -1.7937   -0.0190    0.0916 N   0  0  0  0  0  2  0  0  0  0  0  0
   -0.0320   -3.1026   -1.6597 C   0  0  0  0  0  3  0  0  0  0  0  0
    1.0445   -3.2554   -1.8009 H   0  0  0  0  0  0  0  0  0  0  0  0
   -1.1322   -3.9137   -2.0393 C   0  0  0  0  0  0  0  0  0  0  0  0
   -1.1048   -4.8754   -2.5610 H   0  0  0  0  0  0  0  0  0  0  0  0
   -2.2605   -3.2318   -1.6078 C   0  0  0  0  0  0  0  0  0  0  0  0
   -3.3232   -3.4794   -1.6853 H   0  0  0  0  0  0  0  0  0  0  0  0
   -2.5517   -1.0243   -0.3998 C   0  0  2  0  0  3  0  0  0  0  0  0
   -3.9513   -1.0371   -0.3190 C   0  0  0  0  0  0  0  0  0  0  0  0
   -4.5144   -1.8811   -0.7332 H   0  0  0  0  0  0  0  0  0  0  0  0
   -4.6214    0.0361    0.2935 C   0  0  0  0  0  0  0  0  0  0  0  0
   -3.8127    1.0817    0.8011 C   0  0  0  0  0  0  0  0  0  0  0  0
   -4.2610    1.9553    1.2935 H   0  0  0  0  0  0  0  0  0  0  0  0
   -2.4275    1.0211    0.6834 C   0  0  0  0  0  0  0  0  0  0  0  0
   -1.7709    1.8156    1.0694 H   0  0  0  0  0  0  0  0  0  0  0  0
   -6.1461    0.0960    0.4186 C   0  0  0  0  0  0  0  0  0  0  0  0
   -6.5148    0.1740    1.9194 C   0  0  0  0  0  0  0  0  0  0  0  0
   -7.6161    0.2261    2.0311 H   0  0  0  0  0  0  0  0  0  0  0  0
   -6.0878    1.0714    2.4086 H   0  0  0  0  0  0  0  0  0  0  0  0
   -6.1574   -0.7203    2.4681 H   0  0  0  0  0  0  0  0  0  0  0  0
   -6.8263   -1.1375   -0.1981 C   0  0  0  0  0  0  0  0  0  0  0  0
   -6.6165   -1.2298   -1.2832 H   0  0  0  0  0  0  0  0  0  0  0  0
   -7.9243   -1.0510   -0.0853 H   0  0  0  0  0  0  0  0  0  0  0  0
   -6.5201   -2.0772    0.3049 H   0  0  0  0  0  0  0  0  0  0  0  0
   -6.6500    1.3640   -0.3114 C   0  0  0  0  0  0  0  0  0  0  0  0
   -6.3893    1.3381   -1.3884 H   0  0  0  0  0  0  0  0  0  0  0  0
   -6.2274    2.2916    0.1223 H   0  0  0  0  0  0  0  0  0  0  0  0
   -7.7531    1.4294   -0.2274 H   0  0  0  0  0  0  0  0  0  0  0  0
  1  2  1  0  0  0  0
  3 16  1  0  0  0  0
  4  1  1  0  0  0  0
  5  4  1  0  0  0  0
  6  4  1  0  0  0  0
  6  8  2  0  0  0  0
  7  6  1  0  0  0  0
  8  2  1  0  0  0  0
  9  8  1  0  0  0  0
 10  2  1  1  0  0  0
 10 11  1  0  0  0  0
 10  3  1  0  0  0  0
 11 13  2  0  0  0  0
 12 11  1  0  0  0  0
 13 18  1  0  0  0  0
 13 14  1  0  0  0  0
 14 15  1  0  0  0  0
 16 14  2  0  0  0  0
 16 17  1  0  0  0  0
 18 19  1  0  0  0  0
 19 20  1  0  0  0  0
 19 21  1  0  0  0  0
 19 22  1  0  0  0  0
 23 25  1  0  0  0  0
 23 26  1  0  0  0  0
 23 18  1  0  0  0  0
 24 23  1  0  0  0  0
 27 30  1  0  0  0  0
 27 29  1  0  0  0  0
 27 18  1  0  0  0  0
 28 27  1  0  0  0  0
M  END
