2,6
 OpenBabel05122313053D

 71 75  0  0  1  0  0  0  0  0999 V2000
   -2.8453   -0.0146   -0.0578 B   0  0  0  0  0  0  0  0  0  0  0  0
    3.0774   -1.4158   -0.9958 N   0  0  0  0  0  2  0  0  0  0  0  0
    1.7904   -1.3150   -1.2734 C   0  0  2  0  0  3  0  0  0  0  0  0
    1.1283   -0.0391   -1.0459 C   0  0  1  0  0  3  0  0  0  0  0  0
    1.7760    1.2536   -1.1910 C   0  0  2  0  0  3  0  0  0  0  0  0
    3.0735    1.3416   -0.9434 N   0  0  0  0  0  2  0  0  0  0  0  0
    0.9720   -2.4715   -1.7743 C   0  0  0  0  0  0  0  0  0  0  0  0
    1.5975   -3.1842   -2.3421 H   0  0  0  0  0  0  0  0  0  0  0  0
    0.1097   -2.1497   -2.3840 H   0  0  0  0  0  0  0  0  0  0  0  0
    0.5654   -3.0158   -0.8943 H   0  0  0  0  0  0  0  0  0  0  0  0
   -0.2650   -0.0552   -0.8921 C   0  0  0  0  0  2  0  0  0  0  0  0
   -1.4155   -0.0698   -0.6842 N   0  0  0  0  0  2  0  0  0  0  0  0
    0.9443    2.4468   -1.5708 C   0  0  0  0  0  0  0  0  0  0  0  0
    0.6715    2.9843   -0.6365 H   0  0  0  0  0  0  0  0  0  0  0  0
    0.0075    2.1733   -2.0877 H   0  0  0  0  0  0  0  0  0  0  0  0
    1.5281    3.1517   -2.1917 H   0  0  0  0  0  0  0  0  0  0  0  0
    3.8354   -2.5600   -1.3858 C   0  0  0  0  0  0  0  0  0  0  0  0
    3.7770   -3.7582   -0.6458 C   0  0  0  0  0  0  0  0  0  0  0  0
    3.1149   -3.8135    0.2303 H   0  0  0  0  0  0  0  0  0  0  0  0
    4.5854   -4.8427   -1.0167 C   0  0  0  0  0  0  0  0  0  0  0  0
    4.5368   -5.7758   -0.4354 H   0  0  0  0  0  0  0  0  0  0  0  0
    5.4524   -4.7424   -2.1172 C   0  0  0  0  0  0  0  0  0  0  0  0
    6.0857   -5.5956   -2.4017 H   0  0  0  0  0  0  0  0  0  0  0  0
    5.5066   -3.5479   -2.8534 C   0  0  0  0  0  0  0  0  0  0  0  0
    6.1800   -3.4627   -3.7195 H   0  0  0  0  0  0  0  0  0  0  0  0
    4.7032   -2.4568   -2.4903 C   0  0  0  0  0  0  0  0  0  0  0  0
    4.7355   -1.5148   -3.0577 H   0  0  0  0  0  0  0  0  0  0  0  0
    3.8268    2.5005   -1.2992 C   0  0  0  0  0  0  0  0  0  0  0  0
    3.7873    3.6726   -0.5174 C   0  0  0  0  0  0  0  0  0  0  0  0
    3.1435    3.7006    0.3732 H   0  0  0  0  0  0  0  0  0  0  0  0
    4.5940    4.7661   -0.8654 C   0  0  0  0  0  0  0  0  0  0  0  0
    4.5600    5.6785   -0.2511 H   0  0  0  0  0  0  0  0  0  0  0  0
    5.4408    4.7009   -1.9839 C   0  0  0  0  0  0  0  0  0  0  0  0
    6.0727    5.5612   -2.2500 H   0  0  0  0  0  0  0  0  0  0  0  0
    5.4774    3.5321   -2.7613 C   0  0  0  0  0  0  0  0  0  0  0  0
    6.1356    3.4738   -3.6412 H   0  0  0  0  0  0  0  0  0  0  0  0
    4.6757    2.4326   -2.4214 C   0  0  0  0  0  0  0  0  0  0  0  0
    4.6947    1.5097   -3.0201 H   0  0  0  0  0  0  0  0  0  0  0  0
   -2.6360   -0.7487    1.3951 C   0  0  0  0  0  0  0  0  0  0  0  0
   -3.4049   -1.8228    1.8705 C   0  0  0  0  0  0  0  0  0  0  0  0
   -4.4513   -2.2976    1.1695 F   0  0  0  0  0  0  0  0  0  0  0  0
   -3.1415   -2.4630    3.0958 C   0  0  0  0  0  0  0  0  0  0  0  0
   -3.9010   -3.4858    3.5074 F   0  0  0  0  0  0  0  0  0  0  0  0
   -2.0721   -2.0250    3.8917 C   0  0  0  0  0  0  0  0  0  0  0  0
   -1.8096   -2.6280    5.0548 F   0  0  0  0  0  0  0  0  0  0  0  0
   -1.2833   -0.9450    3.4620 C   0  0  0  0  0  0  0  0  0  0  0  0
   -0.2668   -0.5161    4.2159 F   0  0  0  0  0  0  0  0  0  0  0  0
   -1.5877   -0.3342    2.2374 C   0  0  0  0  0  0  0  0  0  0  0  0
   -0.8118    0.7127    1.8765 F   0  0  0  0  0  0  0  0  0  0  0  0
   -3.1542    1.5945    0.0420 C   0  0  0  0  0  0  0  0  0  0  0  0
   -3.6996    2.2178    1.1759 C   0  0  0  0  0  0  0  0  0  0  0  0
   -4.0511    1.5006    2.2556 F   0  0  0  0  0  0  0  0  0  0  0  0
   -3.9245    3.6039    1.2491 C   0  0  0  0  0  0  0  0  0  0  0  0
   -4.4449    4.1539    2.3515 F   0  0  0  0  0  0  0  0  0  0  0  0
   -3.6070    4.4171    0.1495 C   0  0  0  0  0  0  0  0  0  0  0  0
   -3.8127    5.7362    0.2054 F   0  0  0  0  0  0  0  0  0  0  0  0
   -3.0727    3.8334   -1.0098 C   0  0  0  0  0  0  0  0  0  0  0  0
   -2.7650    4.5952   -2.0684 F   0  0  0  0  0  0  0  0  0  0  0  0
   -2.8769    2.4443   -1.0396 C   0  0  0  0  0  0  0  0  0  0  0  0
   -2.3800    1.9353   -2.1961 F   0  0  0  0  0  0  0  0  0  0  0  0
   -3.8674   -0.7880   -1.0704 C   0  0  0  0  0  0  0  0  0  0  0  0
   -5.2009   -0.3888   -1.2544 C   0  0  0  0  0  0  0  0  0  0  0  0
   -5.7055    0.6581   -0.5766 F   0  0  0  0  0  0  0  0  0  0  0  0
   -6.0867   -1.0536   -2.1204 C   0  0  0  0  0  0  0  0  0  0  0  0
   -7.3479   -0.6317   -2.2649 F   0  0  0  0  0  0  0  0  0  0  0  0
   -5.6417   -2.1784   -2.8322 C   0  0  0  0  0  0  0  0  0  0  0  0
   -6.4695   -2.8233   -3.6595 F   0  0  0  0  0  0  0  0  0  0  0  0
   -4.3215   -2.6251   -2.6639 C   0  0  0  0  0  0  0  0  0  0  0  0
   -3.8884   -3.7054   -3.3269 F   0  0  0  0  0  0  0  0  0  0  0  0
   -3.4771   -1.9296   -1.7858 C   0  0  0  0  0  0  0  0  0  0  0  0
   -2.2277   -2.4369   -1.6310 F   0  0  0  0  0  0  0  0  0  0  0  0
  1 50  1  0  0  0  0
  1 39  1  0  0  0  0
  3  4  1  0  0  0  0
  3  2  1  1  0  0  0
  4 11  1  6  0  0  0
  5  4  1  0  0  0  0
  5  6  1  1  0  0  0
  7  3  1  0  0  0  0
  7 10  1  0  0  0  0
  8  7  1  0  0  0  0
  9  7  1  0  0  0  0
 11 12  1  0  0  0  0
 12  1  1  0  0  0  0
 13  5  1  0  0  0  0
 13 14  1  0  0  0  0
 15 13  1  0  0  0  0
 16 13  1  0  0  0  0
 17  2  1  0  0  0  0
 17 18  1  0  0  0  0
 18 19  1  0  0  0  0
 20 18  2  0  0  0  0
 20 21  1  0  0  0  0
 22 20  1  0  0  0  0
 23 22  1  0  0  0  0
 24 26  1  0  0  0  0
 24 22  2  0  0  0  0
 25 24  1  0  0  0  0
 26 17  2  0  0  0  0
 27 26  1  0  0  0  0
 28  6  1  0  0  0  0
 28 29  1  0  0  0  0
 29 30  1  0  0  0  0
 31 29  2  0  0  0  0
 31 32  1  0  0  0  0
 33 31  1  0  0  0  0
 34 33  1  0  0  0  0
 35 37  1  0  0  0  0
 35 33  2  0  0  0  0
 36 35  1  0  0  0  0
 37 28  2  0  0  0  0
 38 37  1  0  0  0  0
 39 40  2  0  0  0  0
 39 48  1  0  0  0  0
 40 42  1  0  0  0  0
 41 40  1  0  0  0  0
 42 43  1  0  0  0  0
 42 44  2  0  0  0  0
 44 45  1  0  0  0  0
 46 44  1  0  0  0  0
 46 47  1  0  0  0  0
 48 46  2  0  0  0  0
 49 48  1  0  0  0  0
 50 51  1  0  0  0  0
 51 53  2  0  0  0  0
 51 52  1  0  0  0  0
 53 54  1  0  0  0  0
 55 56  1  0  0  0  0
 55 53  1  0  0  0  0
 57 55  2  0  0  0  0
 58 57  1  0  0  0  0
 59 57  1  0  0  0  0
 59 50  2  0  0  0  0
 60 59  1  0  0  0  0
 61  1  1  0  0  0  0
 62 61  1  0  0  0  0
 62 63  1  0  0  0  0
 64 62  2  0  0  0  0
 65 64  1  0  0  0  0
 66 68  2  0  0  0  0
 66 64  1  0  0  0  0
 67 66  1  0  0  0  0
 68 70  1  0  0  0  0
 69 68  1  0  0  0  0
 70 71  1  0  0  0  0
 70 61  2  0  0  0  0
M  END
