1,2
 OpenBabel05122313053D

 75 77  0  0  1  0  0  0  0  0999 V2000
    1.5275   -0.1007    0.2569 N   0  0  0  0  0  2  0  0  0  0  0  0
   -1.3148   -0.0314    0.8526 N   0  0  0  0  0  2  0  0  0  0  0  0
    0.7425   -0.1444    3.9210 C   0  0  0  0  0  0  0  0  0  0  0  0
   -0.1062   -0.1412    4.6160 H   0  0  0  0  0  0  0  0  0  0  0  0
    2.0169   -0.1958    4.4643 C   0  0  0  0  0  0  0  0  0  0  0  0
    2.1570   -0.2325    5.5541 H   0  0  0  0  0  0  0  0  0  0  0  0
    3.1262   -0.1991    3.5861 C   0  0  0  0  0  0  0  0  0  0  0  0
    4.1515   -0.2382    3.9872 H   0  0  0  0  0  0  0  0  0  0  0  0
    2.9329   -0.1578    2.2172 C   0  0  0  0  0  0  0  0  0  0  0  0
    3.8002   -0.1671    1.5431 H   0  0  0  0  0  0  0  0  0  0  0  0
    1.6260   -0.1178    1.6100 C   0  0  2  0  0  3  0  0  0  0  0  0
    0.4748   -0.1010    2.5160 C   0  0  0  0  0  0  0  0  0  0  0  0
   -0.9246   -0.0191    2.1171 C   0  0  0  0  0  0  0  0  0  0  0  0
   -1.9893    0.0920    3.1946 C   0  0  0  0  0  0  0  0  0  0  0  0
   -2.9908    0.1919    2.7392 H   0  0  0  0  0  0  0  0  0  0  0  0
   -1.8130    0.9696    3.8474 H   0  0  0  0  0  0  0  0  0  0  0  0
   -1.9971   -0.8039    3.8474 H   0  0  0  0  0  0  0  0  0  0  0  0
    2.7001   -0.0073   -0.5410 C   0  0  0  0  0  0  0  0  0  0  0  0
    3.1952    1.2731   -0.9168 C   0  0  0  0  0  0  0  0  0  0  0  0
    4.3312    1.3422   -1.7441 C   0  0  0  0  0  0  0  0  0  0  0  0
    4.7232    2.3288   -2.0385 H   0  0  0  0  0  0  0  0  0  0  0  0
    4.9721    0.1822   -2.1965 C   0  0  0  0  0  0  0  0  0  0  0  0
    5.8622    0.2557   -2.8398 H   0  0  0  0  0  0  0  0  0  0  0  0
    4.4722   -1.0746   -1.8264 C   0  0  0  0  0  0  0  0  0  0  0  0
    4.9751   -1.9844   -2.1882 H   0  0  0  0  0  0  0  0  0  0  0  0
    3.3428   -1.1939   -0.9981 C   0  0  0  0  0  0  0  0  0  0  0  0
    3.3517    3.2673    0.6317 C   0  0  0  0  0  0  0  0  0  0  0  0
    3.5609    2.6021    1.4927 H   0  0  0  0  0  0  0  0  0  0  0  0
    2.8228    4.1659    1.0129 H   0  0  0  0  0  0  0  0  0  0  0  0
    4.3253    3.5997    0.2134 H   0  0  0  0  0  0  0  0  0  0  0  0
    2.5090    2.5446   -0.4332 C   0  0  0  0  0  0  0  0  0  0  0  0
    1.5617    2.2272    0.0491 H   0  0  0  0  0  0  0  0  0  0  0  0
    2.1426    3.4799   -1.5959 C   0  0  0  0  0  0  0  0  0  0  0  0
    1.5088    2.9604   -2.3429 H   0  0  0  0  0  0  0  0  0  0  0  0
    3.0436    3.8574   -2.1227 H   0  0  0  0  0  0  0  0  0  0  0  0
    1.5826    4.3640   -1.2265 H   0  0  0  0  0  0  0  0  0  0  0  0
    3.8130   -3.6377   -0.3921 C   0  0  0  0  0  0  0  0  0  0  0  0
    4.5429   -3.3181    0.3786 H   0  0  0  0  0  0  0  0  0  0  0  0
    4.3802   -3.8910   -1.3121 H   0  0  0  0  0  0  0  0  0  0  0  0
    3.3312   -4.5733   -0.0414 H   0  0  0  0  0  0  0  0  0  0  0  0
    2.7573   -2.5548   -0.6444 C   0  0  0  0  0  0  0  0  0  0  0  0
    2.1803   -2.4224    0.2936 H   0  0  0  0  0  0  0  0  0  0  0  0
    1.7581   -2.9834   -1.7347 C   0  0  0  0  0  0  0  0  0  0  0  0
    0.9831   -2.2017   -1.8794 H   0  0  0  0  0  0  0  0  0  0  0  0
    1.2449   -3.9301   -1.4656 H   0  0  0  0  0  0  0  0  0  0  0  0
    2.2736   -3.1297   -2.7067 H   0  0  0  0  0  0  0  0  0  0  0  0
   -2.6619    0.0559    0.4356 C   0  0  0  0  0  0  0  0  0  0  0  0
   -3.4084   -1.1398    0.2170 C   0  0  0  0  0  0  0  0  0  0  0  0
   -4.6754   -1.0365   -0.3840 C   0  0  0  0  0  0  0  0  0  0  0  0
   -5.2645   -1.9491   -0.5576 H   0  0  0  0  0  0  0  0  0  0  0  0
   -5.2114    0.2081   -0.7494 C   0  0  0  0  0  0  0  0  0  0  0  0
   -6.2111    0.2677   -1.2064 H   0  0  0  0  0  0  0  0  0  0  0  0
   -4.4858    1.3789   -0.4829 C   0  0  0  0  0  0  0  0  0  0  0  0
   -4.9255    2.3558   -0.7339 H   0  0  0  0  0  0  0  0  0  0  0  0
   -3.2149    1.3311    0.1171 C   0  0  0  0  0  0  0  0  0  0  0  0
   -3.8871   -3.5225    1.0177 C   0  0  0  0  0  0  0  0  0  0  0  0
   -4.5828   -3.1225    1.7827 H   0  0  0  0  0  0  0  0  0  0  0  0
   -3.4029   -4.4293    1.4327 H   0  0  0  0  0  0  0  0  0  0  0  0
   -4.4925   -3.8511    0.1474 H   0  0  0  0  0  0  0  0  0  0  0  0
   -2.8243   -2.4905    0.6199 C   0  0  0  0  0  0  0  0  0  0  0  0
   -2.1884   -2.3110    1.5126 H   0  0  0  0  0  0  0  0  0  0  0  0
   -1.8994   -3.0478   -0.4763 C   0  0  0  0  0  0  0  0  0  0  0  0
   -1.0724   -2.3429   -0.6955 H   0  0  0  0  0  0  0  0  0  0  0  0
   -2.4605   -3.2158   -1.4193 H   0  0  0  0  0  0  0  0  0  0  0  0
   -1.4475   -4.0117   -0.1648 H   0  0  0  0  0  0  0  0  0  0  0  0
   -3.3182    3.7853    0.8235 C   0  0  0  0  0  0  0  0  0  0  0  0
   -4.0036    3.5131    1.6513 H   0  0  0  0  0  0  0  0  0  0  0  0
   -3.9370    4.1533   -0.0212 H   0  0  0  0  0  0  0  0  0  0  0  0
   -2.6930    4.6372    1.1591 H   0  0  0  0  0  0  0  0  0  0  0  0
   -2.4284    2.6044    0.4128 C   0  0  0  0  0  0  0  0  0  0  0  0
   -1.7617    2.3796    1.2715 H   0  0  0  0  0  0  0  0  0  0  0  0
   -1.5167    2.9853   -0.7666 C   0  0  0  0  0  0  0  0  0  0  0  0
   -0.8016    2.1693   -0.9989 H   0  0  0  0  0  0  0  0  0  0  0  0
   -0.9254    3.8947   -0.5361 H   0  0  0  0  0  0  0  0  0  0  0  0
   -2.1136    3.1819   -1.6817 H   0  0  0  0  0  0  0  0  0  0  0  0
  2 13  1  0  0  0  0
  3  5  2  0  0  0  0
  3  4  1  0  0  0  0
  5  6  1  0  0  0  0
  7  8  1  0  0  0  0
  7  5  1  0  0  0  0
  9  7  2  0  0  0  0
 10  9  1  0  0  0  0
 11  1  1  6  0  0  0
 11  9  1  0  0  0  0
 11 12  1  0  0  0  0
 12  3  1  0  0  0  0
 13 12  2  0  0  0  0
 13 14  1  0  0  0  0
 14 16  1  0  0  0  0
 14 17  1  0  0  0  0
 15 14  1  0  0  0  0
 18  1  1  0  0  0  0
 19 18  1  0  0  0  0
 19 31  1  0  0  0  0
 20 19  2  0  0  0  0
 21 20  1  0  0  0  0
 22 24  2  0  0  0  0
 22 20  1  0  0  0  0
 23 22  1  0  0  0  0
 24 26  1  0  0  0  0
 25 24  1  0  0  0  0
 26 41  1  0  0  0  0
 26 18  2  0  0  0  0
 27 29  1  0  0  0  0
 27 28  1  0  0  0  0
 30 27  1  0  0  0  0
 31 32  1  0  0  0  0
 31 27  1  0  0  0  0
 33 36  1  0  0  0  0
 33 31  1  0  0  0  0
 34 33  1  0  0  0  0
 35 33  1  0  0  0  0
 37 40  1  0  0  0  0
 37 38  1  0  0  0  0
 39 37  1  0  0  0  0
 41 37  1  0  0  0  0
 41 42  1  0  0  0  0
 43 45  1  0  0  0  0
 43 41  1  0  0  0  0
 44 43  1  0  0  0  0
 46 43  1  0  0  0  0
 47  2  1  0  0  0  0
 48 47  1  0  0  0  0
 48 60  1  0  0  0  0
 49 48  2  0  0  0  0
 50 49  1  0  0  0  0
 51 53  2  0  0  0  0
 51 49  1  0  0  0  0
 52 51  1  0  0  0  0
 53 55  1  0  0  0  0
 54 53  1  0  0  0  0
 55 70  1  0  0  0  0
 55 47  2  0  0  0  0
 56 58  1  0  0  0  0
 56 57  1  0  0  0  0
 59 56  1  0  0  0  0
 60 56  1  0  0  0  0
 60 61  1  0  0  0  0
 62 65  1  0  0  0  0
 62 60  1  0  0  0  0
 63 62  1  0  0  0  0
 64 62  1  0  0  0  0
 66 69  1  0  0  0  0
 66 67  1  0  0  0  0
 68 66  1  0  0  0  0
 70 66  1  0  0  0  0
 70 71  1  0  0  0  0
 72 74  1  0  0  0  0
 72 70  1  0  0  0  0
 73 72  1  0  0  0  0
 75 72  1  0  0  0  0
M  END
