3,6
 OpenBabel05122313053D

 48 49  0  0  1  0  0  0  0  0999 V2000
    1.3425   -1.5038   -1.1736 O   0  0  0  0  0  0  0  0  0  0  0  0
   -1.1180   -0.7981   -2.1554 O   0  0  0  0  0  0  0  0  0  0  0  0
    2.2416    1.0723    0.1751 N   0  0  0  0  0  2  0  0  0  0  0  0
    3.2700    0.2025    0.3661 N   0  0  0  0  0  0  0  0  0  0  0  0
   -2.9532    1.1500   -0.4727 N   0  0  0  0  0  0  0  0  0  0  0  0
   -1.8176    1.3565    0.2495 N   0  0  0  0  0  2  0  0  0  0  0  0
    2.7796    2.3059    0.0494 C   0  0  2  0  0  3  0  0  0  0  0  0
    4.1841    2.2103    0.1625 C   0  0  0  0  0  0  0  0  0  0  0  0
    4.9093    3.0291    0.1166 H   0  0  0  0  0  0  0  0  0  0  0  0
    4.4724    0.8558    0.3647 C   0  0  0  0  0  0  0  0  0  0  0  0
    1.9213    3.5171   -0.1337 C   0  0  0  0  0  0  0  0  0  0  0  0
    1.0785    3.3195   -0.8258 H   0  0  0  0  0  0  0  0  0  0  0  0
    2.5132    4.3587   -0.5379 H   0  0  0  0  0  0  0  0  0  0  0  0
    1.4912    3.8512    0.8340 H   0  0  0  0  0  0  0  0  0  0  0  0
    5.7794    0.1645    0.5674 C   0  0  0  0  0  0  0  0  0  0  0  0
    5.8389   -0.3211    1.5637 H   0  0  0  0  0  0  0  0  0  0  0  0
    6.6024    0.8990    0.5061 H   0  0  0  0  0  0  0  0  0  0  0  0
    5.9656   -0.6147   -0.1999 H   0  0  0  0  0  0  0  0  0  0  0  0
    3.0126   -1.2191    0.5533 C   0  0  0  0  0  0  0  0  0  0  0  0
    2.2093   -1.3384    1.3102 H   0  0  0  0  0  0  0  0  0  0  0  0
    3.9350   -1.6773    0.9543 H   0  0  0  0  0  0  0  0  0  0  0  0
    2.6166   -1.9621   -0.7156 C   0  0  0  0  0  0  0  0  0  0  0  0
    3.3787   -1.8242   -1.5176 H   0  0  0  0  0  0  0  0  0  0  0  0
    2.5478   -3.0448   -0.4689 H   0  0  0  0  0  0  0  0  0  0  0  0
    0.8083   -2.2228   -2.2839 C   0  0  0  0  0  0  0  0  0  0  0  0
    1.1167   -3.2899   -2.2376 H   0  0  0  0  0  0  0  0  0  0  0  0
    1.2005   -1.7937   -3.2365 H   0  0  0  0  0  0  0  0  0  0  0  0
   -0.7039   -2.1743   -2.2301 C   0  0  0  0  0  0  0  0  0  0  0  0
   -1.1199   -2.6477   -3.1474 H   0  0  0  0  0  0  0  0  0  0  0  0
   -1.0758   -2.7091   -1.3318 H   0  0  0  0  0  0  0  0  0  0  0  0
   -2.5443   -0.6331   -2.1944 C   0  0  0  0  0  0  0  0  0  0  0  0
   -3.0157   -1.3171   -1.4573 H   0  0  0  0  0  0  0  0  0  0  0  0
   -2.9065   -0.8946   -3.2145 H   0  0  0  0  0  0  0  0  0  0  0  0
   -2.9051    0.8181   -1.8855 C   0  0  0  0  0  0  0  0  0  0  0  0
   -2.1981    1.5087   -2.3909 H   0  0  0  0  0  0  0  0  0  0  0  0
   -3.9086    1.0239   -2.3013 H   0  0  0  0  0  0  0  0  0  0  0  0
   -4.0677    1.3222    0.3041 C   0  0  1  0  0  3  0  0  0  0  0  0
   -3.6105    1.6527    1.5818 C   0  0  0  0  0  0  0  0  0  0  0  0
   -4.2294    1.8669    2.4586 H   0  0  0  0  0  0  0  0  0  0  0  0
   -2.2015    1.6525    1.5134 C   0  0  0  0  0  0  0  0  0  0  0  0
   -5.4588    1.1781   -0.2157 C   0  0  0  0  0  0  0  0  0  0  0  0
   -5.6514    0.1585   -0.6082 H   0  0  0  0  0  0  0  0  0  0  0  0
   -5.6806    1.9041   -1.0258 H   0  0  0  0  0  0  0  0  0  0  0  0
   -6.1798    1.3620    0.6008 H   0  0  0  0  0  0  0  0  0  0  0  0
   -1.2085    1.8687    2.6067 C   0  0  0  0  0  0  0  0  0  0  0  0
   -0.2676    2.3077    2.2177 H   0  0  0  0  0  0  0  0  0  0  0  0
   -0.9510    0.9015    3.0856 H   0  0  0  0  0  0  0  0  0  0  0  0
   -1.6153    2.5467    3.3794 H   0  0  0  0  0  0  0  0  0  0  0  0
  1 22  1  0  0  0  0
  3  4  1  0  0  0  0
  4 19  1  0  0  0  0
  5  6  1  0  0  0  0
  5 37  1  0  0  0  0
  6 40  1  0  0  0  0
  7 11  1  1  0  0  0
  7  8  1  0  0  0  0
  7  3  1  0  0  0  0
  8 10  2  0  0  0  0
  9  8  1  0  0  0  0
 10  4  1  0  0  0  0
 10 15  1  0  0  0  0
 11 14  1  0  0  0  0
 12 11  1  0  0  0  0
 13 11  1  0  0  0  0
 15 16  1  0  0  0  0
 17 15  1  0  0  0  0
 18 15  1  0  0  0  0
 19 21  1  0  0  0  0
 19 20  1  0  0  0  0
 22 24  1  0  0  0  0
 22 19  1  0  0  0  0
 23 22  1  0  0  0  0
 25 26  1  0  0  0  0
 25 28  1  0  0  0  0
 25  1  1  0  0  0  0
 27 25  1  0  0  0  0
 28  2  1  0  0  0  0
 28 30  1  0  0  0  0
 29 28  1  0  0  0  0
 31  2  1  0  0  0  0
 31 34  1  0  0  0  0
 31 32  1  0  0  0  0
 33 31  1  0  0  0  0
 34  5  1  0  0  0  0
 35 34  1  0  0  0  0
 36 34  1  0  0  0  0
 37 41  1  6  0  0  0
 37 38  1  0  0  0  0
 38 39  1  0  0  0  0
 40 38  2  0  0  0  0
 40 45  1  0  0  0  0
 41 44  1  0  0  0  0
 42 41  1  0  0  0  0
 43 41  1  0  0  0  0
 45 47  1  0  0  0  0
 45 48  1  0  0  0  0
 46 45  1  0  0  0  0
M  END
