2,4
 OpenBabel05122313053D

 70 72  0  0  1  0  0  0  0  0999 V2000
   -0.3598   -1.7866   -0.8882 N   0  0  0  0  0  0  0  0  0  0  0  0
   -1.1720    1.1876   -0.0442 N   0  0  0  0  0  2  0  0  0  0  0  0
    0.5696   -1.6883    1.0897 N   0  0  0  0  0  0  0  0  0  0  0  0
    1.1045    1.2946    0.0786 N   0  0  0  0  0  2  0  0  0  0  0  0
   -0.1186   -3.1021   -0.4922 C   0  0  0  0  0  0  0  0  0  0  0  0
   -0.0026    0.5565    0.0373 C   0  0  0  0  0  3  0  0  0  0  0  0
    3.4302    1.4814    0.6409 C   0  0  0  0  0  0  0  0  0  0  0  0
    3.1540    2.3377    1.2740 H   0  0  0  0  0  0  0  0  0  0  0  0
    0.4604   -3.0402    0.7643 C   0  0  0  0  0  0  0  0  0  0  0  0
    0.0656   -0.9376    0.0795 C   0  0  1  0  0  3  0  0  0  0  0  0
    2.3947    0.8300   -0.0805 C   0  0  0  0  0  0  0  0  0  0  0  0
   -2.7007   -0.4285    1.0665 C   0  0  0  0  0  0  0  0  0  0  0  0
   -1.9140   -0.7862    1.7462 H   0  0  0  0  0  0  0  0  0  0  0  0
   -2.4145    0.6173    0.1469 C   0  0  0  0  0  0  0  0  0  0  0  0
    4.7514    1.0304    0.5717 C   0  0  0  0  0  0  0  0  0  0  0  0
    5.5280    1.5459    1.1603 H   0  0  0  0  0  0  0  0  0  0  0  0
   -5.0494   -0.5118    0.3556 C   0  0  0  0  0  0  0  0  0  0  0  0
   -3.9865   -0.9801    1.1518 C   0  0  0  0  0  0  0  0  0  0  0  0
   -4.1766   -1.7934    1.8719 H   0  0  0  0  0  0  0  0  0  0  0  0
    2.7762   -0.2411   -0.9369 C   0  0  0  0  0  0  0  0  0  0  0  0
    2.0252   -0.7064   -1.5914 H   0  0  0  0  0  0  0  0  0  0  0  0
   -3.5030    1.1286   -0.6120 C   0  0  0  0  0  0  0  0  0  0  0  0
   -3.3005    1.9660   -1.2961 H   0  0  0  0  0  0  0  0  0  0  0  0
    5.1194   -0.0730   -0.2278 C   0  0  0  0  0  0  0  0  0  0  0  0
   -6.8268   -1.8109   -0.8874 C   0  0  0  0  0  0  0  0  0  0  0  0
   -6.9005   -1.0651   -1.7063 H   0  0  0  0  0  0  0  0  0  0  0  0
   -7.8122   -2.3147   -0.8045 H   0  0  0  0  0  0  0  0  0  0  0  0
   -6.0759   -2.5678   -1.1923 H   0  0  0  0  0  0  0  0  0  0  0  0
   -6.4333   -1.1376    0.4393 C   0  0  0  0  0  0  0  0  0  0  0  0
   -6.3789   -1.9330    1.2153 H   0  0  0  0  0  0  0  0  0  0  0  0
    4.1032   -0.6828   -0.9931 C   0  0  0  0  0  0  0  0  0  0  0  0
    4.3551   -1.5186   -1.6663 H   0  0  0  0  0  0  0  0  0  0  0  0
   -4.7784    0.5698   -0.5141 C   0  0  0  0  0  0  0  0  0  0  0  0
   -5.5879    0.9850   -1.1357 H   0  0  0  0  0  0  0  0  0  0  0  0
    2.5701   -1.3854    2.5858 C   0  0  0  0  0  0  0  0  0  0  0  0
    3.1750   -1.0286    1.7316 H   0  0  0  0  0  0  0  0  0  0  0  0
    2.7984   -2.4529    2.7680 H   0  0  0  0  0  0  0  0  0  0  0  0
    2.8869   -0.8180    3.4822 H   0  0  0  0  0  0  0  0  0  0  0  0
    1.0823   -1.1355    2.3541 C   0  0  0  0  0  0  0  0  0  0  0  0
    0.4679   -1.5659    3.1731 H   0  0  0  0  0  0  0  0  0  0  0  0
    0.8700   -0.0495    2.3235 H   0  0  0  0  0  0  0  0  0  0  0  0
    0.8918   -4.1447    1.6671 C   0  0  0  0  0  0  0  0  0  0  0  0
    1.9953   -4.2568    1.6939 H   0  0  0  0  0  0  0  0  0  0  0  0
    0.4622   -5.1046    1.3268 H   0  0  0  0  0  0  0  0  0  0  0  0
    0.5495   -3.9766    2.7081 H   0  0  0  0  0  0  0  0  0  0  0  0
    6.5559   -0.5721   -0.2716 C   0  0  0  0  0  0  0  0  0  0  0  0
    7.1448    0.0908    0.3998 H   0  0  0  0  0  0  0  0  0  0  0  0
   -0.9246   -1.3551   -2.1773 C   0  0  0  0  0  0  0  0  0  0  0  0
   -0.2736   -1.7694   -2.9760 H   0  0  0  0  0  0  0  0  0  0  0  0
   -0.8165   -0.2538   -2.2073 H   0  0  0  0  0  0  0  0  0  0  0  0
   -2.3823   -1.7578   -2.3835 C   0  0  0  0  0  0  0  0  0  0  0  0
   -2.7555   -1.2722   -3.3059 H   0  0  0  0  0  0  0  0  0  0  0  0
   -3.0158   -1.4155   -1.5442 H   0  0  0  0  0  0  0  0  0  0  0  0
   -2.5074   -2.8506   -2.5070 H   0  0  0  0  0  0  0  0  0  0  0  0
   -7.5001   -0.1245    0.8874 C   0  0  0  0  0  0  0  0  0  0  0  0
   -7.2316    0.3388    1.8576 H   0  0  0  0  0  0  0  0  0  0  0  0
   -8.4907   -0.6122    0.9976 H   0  0  0  0  0  0  0  0  0  0  0  0
   -7.6126    0.6940    0.1464 H   0  0  0  0  0  0  0  0  0  0  0  0
   -0.4356   -4.2896   -1.3349 C   0  0  0  0  0  0  0  0  0  0  0  0
   -1.5227   -4.5100   -1.3566 H   0  0  0  0  0  0  0  0  0  0  0  0
    0.0834   -5.1837   -0.9437 H   0  0  0  0  0  0  0  0  0  0  0  0
   -0.1053   -4.1445   -2.3833 H   0  0  0  0  0  0  0  0  0  0  0  0
    6.6718   -2.0055    0.2758 C   0  0  0  0  0  0  0  0  0  0  0  0
    6.2656   -2.0761    1.3051 H   0  0  0  0  0  0  0  0  0  0  0  0
    7.7290   -2.3424    0.2974 H   0  0  0  0  0  0  0  0  0  0  0  0
    6.1064   -2.7208   -0.3580 H   0  0  0  0  0  0  0  0  0  0  0  0
    7.1635   -0.4622   -1.6802 C   0  0  0  0  0  0  0  0  0  0  0  0
    6.6261   -1.1131   -2.4012 H   0  0  0  0  0  0  0  0  0  0  0  0
    8.2286   -0.7739   -1.6802 H   0  0  0  0  0  0  0  0  0  0  0  0
    7.1065    0.5766   -2.0618 H   0  0  0  0  0  0  0  0  0  0  0  0
  1  5  1  0  0  0  0
  1 10  1  0  0  0  0
  2  6  1  0  0  0  0
  2 14  1  0  0  0  0
  3 39  1  0  0  0  0
  5  9  2  0  0  0  0
  6  4  1  0  0  0  0
  7  8  1  0  0  0  0
  9  3  1  0  0  0  0
  9 42  1  0  0  0  0
 10  6  1  6  0  0  0
 10  3  1  0  0  0  0
 11  4  1  0  0  0  0
 11  7  2  0  0  0  0
 12 18  1  0  0  0  0
 12 13  1  0  0  0  0
 14 12  2  0  0  0  0
 15  7  1  0  0  0  0
 15 16  1  0  0  0  0
 17 29  1  0  0  0  0
 17 18  2  0  0  0  0
 18 19  1  0  0  0  0
 20 11  1  0  0  0  0
 21 20  1  0  0  0  0
 22 33  2  0  0  0  0
 22 14  1  0  0  0  0
 23 22  1  0  0  0  0
 24 15  2  0  0  0  0
 25 27  1  0  0  0  0
 25 29  1  0  0  0  0
 26 25  1  0  0  0  0
 28 25  1  0  0  0  0
 29 55  1  0  0  0  0
 29 30  1  0  0  0  0
 31 20  2  0  0  0  0
 31 24  1  0  0  0  0
 32 31  1  0  0  0  0
 33 17  1  0  0  0  0
 34 33  1  0  0  0  0
 35 37  1  0  0  0  0
 35 38  1  0  0  0  0
 36 35  1  0  0  0  0
 39 35  1  0  0  0  0
 39 40  1  0  0  0  0
 41 39  1  0  0  0  0
 42 43  1  0  0  0  0
 42 45  1  0  0  0  0
 44 42  1  0  0  0  0
 46 24  1  0  0  0  0
 46 63  1  0  0  0  0
 46 47  1  0  0  0  0
 48  1  1  0  0  0  0
 49 48  1  0  0  0  0
 50 48  1  0  0  0  0
 51 48  1  0  0  0  0
 51 53  1  0  0  0  0
 52 51  1  0  0  0  0
 54 51  1  0  0  0  0
 55 57  1  0  0  0  0
 55 56  1  0  0  0  0
 58 55  1  0  0  0  0
 59 61  1  0  0  0  0
 59  5  1  0  0  0  0
 60 59  1  0  0  0  0
 62 59  1  0  0  0  0
 63 65  1  0  0  0  0
 63 64  1  0  0  0  0
 66 63  1  0  0  0  0
 67 69  1  0  0  0  0
 67 46  1  0  0  0  0
 68 67  1  0  0  0  0
 70 67  1  0  0  0  0
M  END
