1,2
 OpenBabel05122313053D

 28 29  0  0  0  0  0  0  0  0999 V2000
    0.0598    1.2477   -0.3712 N   0  0  0  0  0  2  0  0  0  0  0  0
    0.0746   -1.2652    0.3248 N   0  0  0  0  0  2  0  0  0  0  0  0
   -0.0949    2.5566   -0.6627 C   0  0  0  0  0  0  0  0  0  0  0  0
   -1.1319    2.8522   -0.8985 H   0  0  0  0  0  0  0  0  0  0  0  0
    0.9790    3.4472   -0.5947 C   0  0  0  0  0  0  0  0  0  0  0  0
    0.8234    4.5039   -0.8541 H   0  0  0  0  0  0  0  0  0  0  0  0
    2.2042    2.9873   -0.1043 C   0  0  0  0  0  0  0  0  0  0  0  0
    3.0292    3.6813    0.1133 H   0  0  0  0  0  0  0  0  0  0  0  0
    2.3831    1.6207    0.1917 C   0  0  0  0  0  0  0  0  0  0  0  0
    1.3076    0.7359   -0.0689 C   0  0  0  0  0  0  0  0  0  0  0  0
    3.6461    1.2401    0.9562 C   0  0  0  0  0  0  0  0  0  0  0  0
    3.5045    0.2465    1.4405 H   0  0  0  0  0  0  0  0  0  0  0  0
    4.5117    1.1478    0.2687 H   0  0  0  0  0  0  0  0  0  0  0  0
   -0.0746   -2.5848    0.5669 C   0  0  0  0  0  0  0  0  0  0  0  0
   -1.1110   -2.8948    0.7855 H   0  0  0  0  0  0  0  0  0  0  0  0
    1.0065   -3.4636    0.4815 C   0  0  0  0  0  0  0  0  0  0  0  0
    0.8539   -4.5316    0.6916 H   0  0  0  0  0  0  0  0  0  0  0  0
    2.2398   -2.9758    0.0414 C   0  0  0  0  0  0  0  0  0  0  0  0
    3.0765   -3.6532   -0.1779 H   0  0  0  0  0  0  0  0  0  0  0  0
    2.4137   -1.5992   -0.2000 C   0  0  0  0  0  0  0  0  0  0  0  0
    1.3196   -0.7334    0.0516 C   0  0  0  0  0  0  0  0  0  0  0  0
    3.7077   -1.1699   -0.8647 C   0  0  0  0  0  0  0  0  0  0  0  0
    3.5511   -0.1889   -1.3725 H   0  0  0  0  0  0  0  0  0  0  0  0
    4.4963   -1.0150   -0.0906 H   0  0  0  0  0  0  0  0  0  0  0  0
    4.0157    2.2399    1.8833 O   0  0  0  0  0  0  0  0  0  0  0  0
    3.2779    2.3411    2.5149 H   0  0  0  0  0  0  0  0  0  0  0  0
    4.0881   -2.1856   -1.7735 O   0  0  0  0  0  0  0  0  0  0  0  0
    5.0021   -2.0015   -2.0541 H   0  0  0  0  0  0  0  0  0  0  0  0
  1 10  1  0  0  0  0
  2 14  1  0  0  0  0
  3  5  2  0  0  0  0
  3  1  1  0  0  0  0
  4  3  1  0  0  0  0
  5  7  1  0  0  0  0
  6  5  1  0  0  0  0
  7  8  1  0  0  0  0
  7  9  2  0  0  0  0
  9 11  1  0  0  0  0
 10 21  2  0  0  0  0
 10  9  1  0  0  0  0
 11 12  1  0  0  0  0
 11 25  1  0  0  0  0
 13 11  1  0  0  0  0
 14 15  1  0  0  0  0
 16 14  2  0  0  0  0
 16 17  1  0  0  0  0
 18 16  1  0  0  0  0
 19 18  1  0  0  0  0
 20 18  2  0  0  0  0
 20 21  1  0  0  0  0
 21  2  1  0  0  0  0
 22 20  1  0  0  0  0
 22 24  1  0  0  0  0
 23 22  1  0  0  0  0
 25 26  1  0  0  0  0
 27 22  1  0  0  0  0
 28 27  1  0  0  0  0
M  END
