1,2
 OpenBabel05122313053D

 38 40  0  0  0  0  0  0  0  0999 V2000
   -0.9237    0.9051   -0.4640 N   0  0  0  0  0  2  0  0  0  0  0  0
    0.5994   -0.6311   -0.1119 N   0  0  0  0  0  2  0  0  0  0  0  0
    1.3482    1.6251   -0.6967 N   0  0  0  0  0  0  0  0  0  0  0  0
    0.9801    2.4305   -1.2093 H   0  0  0  0  0  0  0  0  0  0  0  0
    0.3969    0.6618   -0.4146 C   0  0  0  0  0  3  0  0  0  0  0  0
   -1.5475    2.1569   -0.3950 C   0  0  0  0  0  0  0  0  0  0  0  0
   -2.7700    2.3580   -1.0785 C   0  0  0  0  0  0  0  0  0  0  0  0
   -3.1837    1.5339   -1.6757 H   0  0  0  0  0  0  0  0  0  0  0  0
   -3.4350    3.5876   -0.9989 C   0  0  0  0  0  0  0  0  0  0  0  0
   -4.3828    3.7232   -1.5421 H   0  0  0  0  0  0  0  0  0  0  0  0
   -2.9013    4.6442   -0.2418 C   0  0  0  0  0  0  0  0  0  0  0  0
   -3.4263    5.6093   -0.1844 H   0  0  0  0  0  0  0  0  0  0  0  0
   -1.6952    4.4503    0.4500 C   0  0  0  0  0  0  0  0  0  0  0  0
   -1.2739    5.2617    1.0635 H   0  0  0  0  0  0  0  0  0  0  0  0
   -1.0250    3.2205    0.3868 C   0  0  0  0  0  0  0  0  0  0  0  0
   -0.1011    3.0702    0.9646 H   0  0  0  0  0  0  0  0  0  0  0  0
    1.7463   -1.4017   -0.3412 C   0  0  0  0  0  0  0  0  0  0  0  0
    1.9787   -2.5250    0.4846 C   0  0  0  0  0  0  0  0  0  0  0  0
    1.2511   -2.7531    1.2770 H   0  0  0  0  0  0  0  0  0  0  0  0
    3.1069   -3.3309    0.2932 C   0  0  0  0  0  0  0  0  0  0  0  0
    3.2694   -4.2007    0.9482 H   0  0  0  0  0  0  0  0  0  0  0  0
    4.0261   -3.0357   -0.7269 C   0  0  0  0  0  0  0  0  0  0  0  0
    4.9136   -3.6682   -0.8765 H   0  0  0  0  0  0  0  0  0  0  0  0
    3.7930   -1.9311   -1.5614 C   0  0  0  0  0  0  0  0  0  0  0  0
    4.4972   -1.6964   -2.3742 H   0  0  0  0  0  0  0  0  0  0  0  0
    2.6647   -1.1215   -1.3800 C   0  0  0  0  0  0  0  0  0  0  0  0
    2.4841   -0.2706   -2.0501 H   0  0  0  0  0  0  0  0  0  0  0  0
    2.6159    1.7987   -0.1151 C   0  0  0  0  0  0  0  0  0  0  0  0
    3.0194    1.0973    1.0418 C   0  0  0  0  0  0  0  0  0  0  0  0
    2.3320    0.3873    1.5195 H   0  0  0  0  0  0  0  0  0  0  0  0
    4.2966    1.3105    1.5755 C   0  0  0  0  0  0  0  0  0  0  0  0
    4.5997    0.7503    2.4730 H   0  0  0  0  0  0  0  0  0  0  0  0
    5.1827    2.2250    0.9848 C   0  0  0  0  0  0  0  0  0  0  0  0
    6.1840    2.3847    1.4108 H   0  0  0  0  0  0  0  0  0  0  0  0
    4.7743    2.9345   -0.1561 C   0  0  0  0  0  0  0  0  0  0  0  0
    5.4537    3.6586   -0.6307 H   0  0  0  0  0  0  0  0  0  0  0  0
    3.5055    2.7216   -0.7079 C   0  0  0  0  0  0  0  0  0  0  0  0
    3.1944    3.2680   -1.6123 H   0  0  0  0  0  0  0  0  0  0  0  0
  1  5  1  0  0  0  0
  1  6  1  0  0  0  0
  3  5  1  0  0  0  0
  3 28  1  0  0  0  0
  4  3  1  0  0  0  0
  5  2  1  0  0  0  0
  6 15  1  0  0  0  0
  7  9  1  0  0  0  0
  7  6  2  0  0  0  0
  8  7  1  0  0  0  0
  9 11  2  0  0  0  0
 10  9  1  0  0  0  0
 11 12  1  0  0  0  0
 11 13  1  0  0  0  0
 13 14  1  0  0  0  0
 15 13  2  0  0  0  0
 15 16  1  0  0  0  0
 17  2  1  0  0  0  0
 17 18  1  0  0  0  0
 18 19  1  0  0  0  0
 20 18  2  0  0  0  0
 20 21  1  0  0  0  0
 22 20  1  0  0  0  0
 23 22  1  0  0  0  0
 24 26  1  0  0  0  0
 24 22  2  0  0  0  0
 25 24  1  0  0  0  0
 26 17  2  0  0  0  0
 27 26  1  0  0  0  0
 28 29  1  0  0  0  0
 29 30  1  0  0  0  0
 29 31  2  0  0  0  0
 31 32  1  0  0  0  0
 33 34  1  0  0  0  0
 33 31  1  0  0  0  0
 35 33  2  0  0  0  0
 36 35  1  0  0  0  0
 37 35  1  0  0  0  0
 37 28  2  0  0  0  0
 38 37  1  0  0  0  0
M  END
