1,2
 OpenBabel05122313053D

 33 34  0  0  0  0  0  0  0  0999 V2000
    1.3647    0.9550    0.1007 N   0  0  0  0  0  2  0  0  0  0  0  0
   -1.2188    0.6721    0.1883 N   0  0  0  0  0  2  0  0  0  0  0  0
   -2.1605   -0.8635    2.2686 F   0  0  0  0  0  0  0  0  0  0  0  0
   -3.0741    1.4038   -1.7690 F   0  0  0  0  0  0  0  0  0  0  0  0
    3.1367   -0.8163    1.6361 O   0  0  0  0  0  0  0  0  0  0  0  0
    4.5952   -0.3824   -0.0652 O   0  0  0  0  0  0  0  0  0  0  0  0
    2.7123    1.0222    0.1759 C   0  0  0  0  0  0  0  0  0  0  0  0
    3.3916    2.2433    0.0223 C   0  0  0  0  0  0  0  0  0  0  0  0
    4.4897    2.2413    0.0482 H   0  0  0  0  0  0  0  0  0  0  0  0
    2.6572    3.4258   -0.1366 C   0  0  0  0  0  0  0  0  0  0  0  0
    3.1694    4.3902   -0.2660 H   0  0  0  0  0  0  0  0  0  0  0  0
    1.2600    3.3647   -0.0939 C   0  0  0  0  0  0  0  0  0  0  0  0
    0.6536    4.2766   -0.1730 H   0  0  0  0  0  0  0  0  0  0  0  0
    0.6308    2.1124    0.0327 C   0  0  0  0  0  0  0  0  0  0  0  0
   -0.8205    1.9293    0.1413 C   0  0  0  0  0  0  0  0  0  0  0  0
   -1.7422    3.1037    0.2495 C   0  0  0  0  0  0  0  0  0  0  0  0
   -2.7004    2.8055    0.7142 H   0  0  0  0  0  0  0  0  0  0  0  0
   -1.9739    3.5123   -0.7563 H   0  0  0  0  0  0  0  0  0  0  0  0
   -1.2898    3.9119    0.8549 H   0  0  0  0  0  0  0  0  0  0  0  0
   -2.5783    0.3114    0.2671 C   0  0  0  0  0  0  0  0  0  0  0  0
   -3.0250   -0.5353    1.3066 C   0  0  0  0  0  0  0  0  0  0  0  0
   -4.3438   -0.9910    1.3631 C   0  0  0  0  0  0  0  0  0  0  0  0
   -4.6441   -1.6386    2.1977 H   0  0  0  0  0  0  0  0  0  0  0  0
   -5.2361   -0.6269    0.3440 C   0  0  0  0  0  0  0  0  0  0  0  0
   -6.2726   -0.9926    0.3746 H   0  0  0  0  0  0  0  0  0  0  0  0
   -4.8230    0.1902   -0.7197 C   0  0  0  0  0  0  0  0  0  0  0  0
   -5.4992    0.4714   -1.5383 H   0  0  0  0  0  0  0  0  0  0  0  0
   -3.5035    0.6439   -0.7442 C   0  0  0  0  0  0  0  0  0  0  0  0
    3.4617   -0.2059    0.6379 C   0  0  0  0  0  0  0  0  0  0  0  0
    5.3305   -1.5662    0.2812 C   0  0  0  0  0  0  0  0  0  0  0  0
    6.2358   -1.5605   -0.3504 H   0  0  0  0  0  0  0  0  0  0  0  0
    4.7058   -2.4564    0.0639 H   0  0  0  0  0  0  0  0  0  0  0  0
    5.5976   -1.5664    1.3566 H   0  0  0  0  0  0  0  0  0  0  0  0
  1  7  1  0  0  0  0
  2 20  1  0  0  0  0
  4 28  1  0  0  0  0
  6 30  1  0  0  0  0
  6 29  1  0  0  0  0
  7 29  1  0  0  0  0
  8  9  1  0  0  0  0
  8  7  2  0  0  0  0
 10 12  2  0  0  0  0
 10  8  1  0  0  0  0
 11 10  1  0  0  0  0
 12 14  1  0  0  0  0
 13 12  1  0  0  0  0
 14  1  1  0  0  0  0
 14 15  2  0  0  0  0
 15  2  1  0  0  0  0
 15 16  1  0  0  0  0
 16 17  1  0  0  0  0
 16 19  1  0  0  0  0
 18 16  1  0  0  0  0
 20 21  1  0  0  0  0
 21 22  2  0  0  0  0
 21  3  1  0  0  0  0
 22 23  1  0  0  0  0
 24 25  1  0  0  0  0
 24 22  1  0  0  0  0
 26 24  2  0  0  0  0
 27 26  1  0  0  0  0
 28 26  1  0  0  0  0
 28 20  2  0  0  0  0
 29  5  2  0  0  0  0
 30 33  1  0  0  0  0
 31 30  1  0  0  0  0
 32 30  1  0  0  0  0
M  END
