1,2
 OpenBabel05122313053D

 35 37  0  0  1  0  0  0  0  0999 V2000
   -0.4806   -1.3783    0.7005 N   0  0  0  0  0  2  0  0  0  0  0  0
   -2.0643    0.9028    0.0238 N   0  0  0  0  0  2  0  0  0  0  0  0
   -1.5804    1.2630    1.2321 N   0  0  0  0  0  0  0  0  0  0  0  0
   -0.1889   -0.5864    1.7483 N   0  0  0  0  0  0  0  0  0  0  0  0
    2.2765   -0.3905    0.8299 O   0  0  0  0  0  0  0  0  0  0  0  0
   -3.3455    1.2916    0.0008 C   0  0  0  0  0  3  0  0  0  0  0  0
   -0.2221    0.8696    1.6102 C   0  0  1  0  0  0  0  0  0  0  0  0
    0.8056    1.4815    0.6636 C   0  0  0  0  0  0  0  0  0  0  0  0
   -3.6900    1.9358    1.2130 C   0  0  0  0  0  0  0  0  0  0  0  0
   -0.3865   -2.6397    1.1412 C   0  0  0  0  0  3  0  0  0  0  0  0
   -2.5327    1.8869    1.9864 C   0  0  0  0  0  0  0  0  0  0  0  0
    0.5400    2.7671    0.1527 C   0  0  0  0  0  0  0  0  0  0  0  0
    2.0229    0.8464    0.3132 C   0  0  0  0  0  0  0  0  0  0  0  0
   -0.0036   -2.6585    2.5030 C   0  0  0  0  0  0  0  0  0  0  0  0
    1.4392    3.4144   -0.6992 C   0  0  0  0  0  0  0  0  0  0  0  0
    0.1100   -1.3167    2.8590 C   0  0  0  0  0  0  0  0  0  0  0  0
    2.9277    1.5026   -0.5451 C   0  0  0  0  0  0  0  0  0  0  0  0
    2.9524   -1.3400   -0.0167 C   0  0  0  0  0  0  0  0  0  0  0  0
    4.4098   -1.2875    0.0829 C   0  0  0  0  0  0  0  0  0  0  0  0
    2.6363    2.7721   -1.0487 C   0  0  0  0  0  0  0  0  0  0  0  0
    5.6297   -1.2568    0.1588 C   0  0  0  0  0  0  0  0  0  0  0  0
    3.3518    3.2617   -1.7261 H   0  0  0  0  0  0  0  0  0  0  0  0
    1.1992    4.4107   -1.0970 H   0  0  0  0  0  0  0  0  0  0  0  0
    2.5935   -2.3327    0.3268 H   0  0  0  0  0  0  0  0  0  0  0  0
   -2.3115    2.2467    2.9974 H   0  0  0  0  0  0  0  0  0  0  0  0
   -0.0732    1.2573    2.6393 H   0  0  0  0  0  0  0  0  0  0  0  0
   -0.6286   -3.4625    0.4576 H   0  0  0  0  0  0  0  0  0  0  0  0
   -4.6539    2.3726    1.4919 H   0  0  0  0  0  0  0  0  0  0  0  0
   -3.9575    1.0435   -0.8748 H   0  0  0  0  0  0  0  0  0  0  0  0
   -0.4079    3.2621    0.4109 H   0  0  0  0  0  0  0  0  0  0  0  0
    2.5954   -1.2035   -1.0650 H   0  0  0  0  0  0  0  0  0  0  0  0
    0.3911   -0.8322    3.8002 H   0  0  0  0  0  0  0  0  0  0  0  0
    0.1564   -3.5295    3.1457 H   0  0  0  0  0  0  0  0  0  0  0  0
    3.8649    0.9999   -0.8188 H   0  0  0  0  0  0  0  0  0  0  0  0
    6.7084   -1.2294    0.2260 H   0  0  0  0  0  0  0  0  0  0  0  0
  1 10  1  0  0  0  0
  1  4  1  0  0  0  0
  2  3  1  0  0  0  0
  3  7  1  0  0  0  0
  3 11  1  0  0  0  0
  4 16  1  0  0  0  0
  6  2  1  0  0  0  0
  6  9  1  0  0  0  0
  7  4  1  0  0  0  0
  7 26  1  1  0  0  0
  8  7  1  0  0  0  0
  9 28  1  0  0  0  0
  9 11  2  0  0  0  0
 10 14  1  0  0  0  0
 11 25  1  0  0  0  0
 12 30  1  0  0  0  0
 12  8  2  0  0  0  0
 13  8  1  0  0  0  0
 13  5  1  0  0  0  0
 14 16  2  0  0  0  0
 14 33  1  0  0  0  0
 15 12  1  0  0  0  0
 16 32  1  0  0  0  0
 17 13  2  0  0  0  0
 18 19  1  0  0  0  0
 18 24  1  0  0  0  0
 18  5  1  0  0  0  0
 19 21  3  0  0  0  0
 20 15  2  0  0  0  0
 20 17  1  0  0  0  0
 21 35  1  0  0  0  0
 22 20  1  0  0  0  0
 23 15  1  0  0  0  0
 27 10  1  0  0  0  0
 29  6  1  0  0  0  0
 31 18  1  0  0  0  0
 34 17  1  0  0  0  0
M  END
