2,3
 OpenBabel05122313053D

 32 33  0  0  0  0  0  0  0  0999 V2000
    6.4940   -0.5019   -0.0917 Br  0  0  0  0  0  0  0  0  0  0  0  0
   -1.7971    1.5375   -0.1038 N   0  0  0  0  0  2  0  0  0  0  0  0
    0.6159    1.1825   -0.0310 N   0  0  0  0  0  2  0  0  0  0  0  0
   -1.1471    2.6651   -0.0024 N   0  0  0  0  0  0  0  0  0  0  0  0
    2.3166    3.5297    0.1608 O   0  0  0  0  0  0  0  0  0  0  0  0
    1.0949    3.6505    0.1552 C   0  0  0  0  0  0  0  0  0  0  0  0
   -3.9152    2.5672    0.5862 C   0  0  0  0  0  0  0  0  0  0  0  0
   -3.3652    3.1254    1.3561 H   0  0  0  0  0  0  0  0  0  0  0  0
    0.1968    2.4597    0.0526 C   0  0  0  0  0  0  0  0  0  0  0  0
    2.6553    0.5583    1.1718 C   0  0  0  0  0  0  0  0  0  0  0  0
    2.0916    0.6432    2.1123 H   0  0  0  0  0  0  0  0  0  0  0  0
    4.6718    0.0396   -0.0702 C   0  0  0  0  0  0  0  0  0  0  0  0
    2.6694    0.6907   -1.2717 C   0  0  0  0  0  0  0  0  0  0  0  0
    2.1216    0.8739   -2.2065 H   0  0  0  0  0  0  0  0  0  0  0  0
   -3.2033    1.6923   -0.2587 C   0  0  0  0  0  0  0  0  0  0  0  0
    1.9972    0.8454   -0.0424 C   0  0  0  0  0  0  0  0  0  0  0  0
    4.0004    0.1617    1.1574 C   0  0  0  0  0  0  0  0  0  0  0  0
    4.5236   -0.0578    2.0984 H   0  0  0  0  0  0  0  0  0  0  0  0
    4.0110    0.2946   -1.2851 C   0  0  0  0  0  0  0  0  0  0  0  0
    4.5447    0.1742   -2.2381 H   0  0  0  0  0  0  0  0  0  0  0  0
   -3.8684    0.9572   -1.2610 C   0  0  0  0  0  0  0  0  0  0  0  0
   -3.2710    0.2980   -1.9110 H   0  0  0  0  0  0  0  0  0  0  0  0
    0.4066    4.9958    0.2560 C   0  0  0  0  0  0  0  0  0  0  0  0
    1.1753    5.7871    0.3075 H   0  0  0  0  0  0  0  0  0  0  0  0
   -0.2430    5.0318    1.1538 H   0  0  0  0  0  0  0  0  0  0  0  0
   -0.2644    5.1571   -0.6110 H   0  0  0  0  0  0  0  0  0  0  0  0
   -5.3031    2.6859    0.4392 C   0  0  0  0  0  0  0  0  0  0  0  0
   -5.8658    3.3527    1.1101 H   0  0  0  0  0  0  0  0  0  0  0  0
   -5.9758    1.9591   -0.5590 C   0  0  0  0  0  0  0  0  0  0  0  0
   -7.0655    2.0615   -0.6739 H   0  0  0  0  0  0  0  0  0  0  0  0
   -5.2539    1.1054   -1.4102 C   0  0  0  0  0  0  0  0  0  0  0  0
   -5.7745    0.5458   -2.2021 H   0  0  0  0  0  0  0  0  0  0  0  0
  1 12  1  0  0  0  0
  2  4  1  0  0  0  0
  3  9  1  0  0  0  0
  4  9  2  0  0  0  0
  6  5  2  0  0  0  0
  6 23  1  0  0  0  0
  7  8  1  0  0  0  0
  9  6  1  0  0  0  0
 10 11  1  0  0  0  0
 12 17  2  0  0  0  0
 13 16  1  0  0  0  0
 14 13  1  0  0  0  0
 15  2  1  0  0  0  0
 15  7  2  0  0  0  0
 16  3  1  0  0  0  0
 16 10  2  0  0  0  0
 17 10  1  0  0  0  0
 17 18  1  0  0  0  0
 19 13  2  0  0  0  0
 19 12  1  0  0  0  0
 20 19  1  0  0  0  0
 21 15  1  0  0  0  0
 22 21  1  0  0  0  0
 23 24  1  0  0  0  0
 23 25  1  0  0  0  0
 26 23  1  0  0  0  0
 27  7  1  0  0  0  0
 27 28  1  0  0  0  0
 29 27  2  0  0  0  0
 30 29  1  0  0  0  0
 31 21  2  0  0  0  0
 31 29  1  0  0  0  0
 32 31  1  0  0  0  0
M  END
