2,3
 OpenBabel05122313053D

 26 27  0  0  0  0  0  0  0  0999 V2000
   -3.1589   -1.0212   -1.0011 N   0  0  0  0  0  0  0  0  0  0  0  0
    0.7230    1.3843   -0.0477 N   0  0  0  0  0  2  0  0  0  0  0  0
   -0.2912   -1.0227    0.0004 N   0  0  0  0  0  2  0  0  0  0  0  0
   -2.6535   -0.2976    0.0172 C   0  0  0  0  0  0  0  0  0  0  0  0
   -3.4476    0.2060    1.0692 C   0  0  0  0  0  0  0  0  0  0  0  0
   -2.9875    0.7786    1.8882 H   0  0  0  0  0  0  0  0  0  0  0  0
   -4.8244   -0.0581    1.0522 C   0  0  0  0  0  0  0  0  0  0  0  0
   -5.4724    0.3097    1.8622 H   0  0  0  0  0  0  0  0  0  0  0  0
   -5.3550   -0.8014   -0.0107 C   0  0  0  0  0  0  0  0  0  0  0  0
   -6.4292   -1.0312   -0.0666 H   0  0  0  0  0  0  0  0  0  0  0  0
   -4.4774   -1.2583   -1.0099 C   0  0  0  0  0  0  0  0  0  0  0  0
   -4.8609   -1.8491   -1.8604 H   0  0  0  0  0  0  0  0  0  0  0  0
   -0.6464    1.3118   -0.0537 C   0  0  0  0  0  0  0  0  0  0  0  0
   -1.4269    2.4800   -0.1393 C   0  0  0  0  0  0  0  0  0  0  0  0
   -2.5217    2.3984   -0.1713 H   0  0  0  0  0  0  0  0  0  0  0  0
   -0.7923    3.7264   -0.1975 C   0  0  0  0  0  0  0  0  0  0  0  0
   -1.3879    4.6485   -0.2665 H   0  0  0  0  0  0  0  0  0  0  0  0
    0.6101    3.7772   -0.1739 C   0  0  0  0  0  0  0  0  0  0  0  0
    1.1500    4.7336   -0.2178 H   0  0  0  0  0  0  0  0  0  0  0  0
    1.3364    2.5825   -0.1034 C   0  0  0  0  0  0  0  0  0  0  0  0
    2.4396    2.5297   -0.0906 H   0  0  0  0  0  0  0  0  0  0  0  0
   -1.1785   -0.0524   -0.0055 C   0  0  0  0  0  0  0  0  0  0  0  0
   -0.7058   -2.4200    0.0238 C   0  0  0  0  0  0  0  0  0  0  0  0
   -1.5166   -2.5786    0.7641 H   0  0  0  0  0  0  0  0  0  0  0  0
    0.1814   -3.0368    0.2587 H   0  0  0  0  0  0  0  0  0  0  0  0
   -1.0989   -2.6982   -0.9744 H   0  0  0  0  0  0  0  0  0  0  0  0
  1  4  1  0  0  0  0
  3 23  1  0  0  0  0
  4  5  2  0  0  0  0
  5  6  1  0  0  0  0
  7  5  1  0  0  0  0
  7  8  1  0  0  0  0
  9  7  2  0  0  0  0
 10  9  1  0  0  0  0
 11  1  2  0  0  0  0
 11  9  1  0  0  0  0
 12 11  1  0  0  0  0
 13  2  1  0  0  0  0
 13 22  2  0  0  0  0
 14 13  1  0  0  0  0
 15 14  1  0  0  0  0
 16 18  1  0  0  0  0
 16 14  2  0  0  0  0
 17 16  1  0  0  0  0
 18 20  2  0  0  0  0
 19 18  1  0  0  0  0
 20 21  1  0  0  0  0
 20  2  1  0  0  0  0
 22  3  1  0  0  0  0
 22  4  1  0  0  0  0
 23 25  1  0  0  0  0
 23 24  1  0  0  0  0
 26 23  1  0  0  0  0
M  END
