5,6
 OpenBabel05122313053D

 66 70  0  0  1  0  0  0  0  0999 V2000
   -2.4815   -2.2975   -0.8649 Se  0  0  0  0  0  1  0  0  0  0  0  0
    3.1871    1.2757   -2.4385 Se  0  0  0  0  0  1  0  0  0  0  0  0
   -2.9154   -0.3067   -0.1184 P   0  0  0  0  0  4  0  0  0  0  0  0
    2.7487    0.5061   -0.4905 P   0  0  0  0  0  4  0  0  0  0  0  0
   -1.4522    0.4270   -0.3418 N   0  0  0  0  0  2  0  0  0  0  0  0
    1.1192    0.5480   -0.0064 N   0  0  0  0  0  2  0  0  0  0  0  0
   -1.0110    1.7105    0.1875 C   0  0  2  0  0  0  0  0  0  0  0  0
   -1.0171    1.6917    1.3090 H   0  0  0  0  0  0  0  0  0  0  0  0
   -1.8215    2.9340   -0.2621 C   0  0  0  0  0  0  0  0  0  0  0  0
   -1.8134    2.9767   -1.3725 H   0  0  0  0  0  0  0  0  0  0  0  0
   -2.8874    2.8292    0.0314 H   0  0  0  0  0  0  0  0  0  0  0  0
   -1.2189    4.2161    0.3241 C   0  0  0  0  0  0  0  0  0  0  0  0
   -1.3237    4.1925    1.4324 H   0  0  0  0  0  0  0  0  0  0  0  0
   -1.7893    5.1023   -0.0245 H   0  0  0  0  0  0  0  0  0  0  0  0
    0.2641    4.3487   -0.0421 C   0  0  0  0  0  0  0  0  0  0  0  0
    0.7017    5.2514    0.4325 H   0  0  0  0  0  0  0  0  0  0  0  0
    0.3564    4.4980   -1.1406 H   0  0  0  0  0  0  0  0  0  0  0  0
    1.0737    3.1062    0.3539 C   0  0  0  0  0  0  0  0  0  0  0  0
    2.1187    3.2206    0.0054 H   0  0  0  0  0  0  0  0  0  0  0  0
    1.1121    3.0016    1.4598 H   0  0  0  0  0  0  0  0  0  0  0  0
    0.4501    1.8453   -0.2647 C   0  0  1  0  0  0  0  0  0  0  0  0
    0.4344    2.0104   -1.3723 H   0  0  0  0  0  0  0  0  0  0  0  0
   -4.2459    0.5342   -1.0436 C   0  0  0  0  0  0  0  0  0  0  0  0
   -3.9303    1.0445   -2.3197 C   0  0  0  0  0  0  0  0  0  0  0  0
   -2.8985    0.9574   -2.6937 H   0  0  0  0  0  0  0  0  0  0  0  0
   -4.9262    1.6573   -3.0903 C   0  0  0  0  0  0  0  0  0  0  0  0
   -4.6790    2.0598   -4.0843 H   0  0  0  0  0  0  0  0  0  0  0  0
   -6.2383    1.7572   -2.5953 C   0  0  0  0  0  0  0  0  0  0  0  0
   -7.0191    2.2402   -3.2023 H   0  0  0  0  0  0  0  0  0  0  0  0
   -6.5551    1.2394   -1.3296 C   0  0  0  0  0  0  0  0  0  0  0  0
   -7.5830    1.3146   -0.9437 H   0  0  0  0  0  0  0  0  0  0  0  0
   -5.5621    0.6246   -0.5511 C   0  0  0  0  0  0  0  0  0  0  0  0
   -5.8089    0.2182    0.4413 H   0  0  0  0  0  0  0  0  0  0  0  0
   -3.4263   -0.3007    1.6441 C   0  0  0  0  0  0  0  0  0  0  0  0
   -3.4560   -1.5024    2.3763 C   0  0  0  0  0  0  0  0  0  0  0  0
   -3.2557   -2.4484    1.8478 H   0  0  0  0  0  0  0  0  0  0  0  0
   -3.7281   -1.4803    3.7521 C   0  0  0  0  0  0  0  0  0  0  0  0
   -3.7534   -2.4238    4.3183 H   0  0  0  0  0  0  0  0  0  0  0  0
   -3.9689   -0.2599    4.4043 C   0  0  0  0  0  0  0  0  0  0  0  0
   -4.1805   -0.2439    5.4843 H   0  0  0  0  0  0  0  0  0  0  0  0
   -3.9440    0.9410    3.6766 C   0  0  0  0  0  0  0  0  0  0  0  0
   -4.1354    1.8989    4.1835 H   0  0  0  0  0  0  0  0  0  0  0  0
   -3.6759    0.9248    2.2997 C   0  0  0  0  0  0  0  0  0  0  0  0
   -3.6689    1.8692    1.7349 H   0  0  0  0  0  0  0  0  0  0  0  0
    3.7142    1.3842    0.8283 C   0  0  0  0  0  0  0  0  0  0  0  0
    4.9138    2.0391    0.4985 C   0  0  0  0  0  0  0  0  0  0  0  0
    5.2229    2.0708   -0.5592 H   0  0  0  0  0  0  0  0  0  0  0  0
    5.6770    2.6541    1.5027 C   0  0  0  0  0  0  0  0  0  0  0  0
    6.6139    3.1685    1.2385 H   0  0  0  0  0  0  0  0  0  0  0  0
    5.2461    2.6192    2.8388 C   0  0  0  0  0  0  0  0  0  0  0  0
    5.8443    3.1051    3.6249 H   0  0  0  0  0  0  0  0  0  0  0  0
    4.0462    1.9681    3.1696 C   0  0  0  0  0  0  0  0  0  0  0  0
    3.7001    1.9456    4.2146 H   0  0  0  0  0  0  0  0  0  0  0  0
    3.2814    1.3511    2.1687 C   0  0  0  0  0  0  0  0  0  0  0  0
    2.3311    0.8576    2.4193 H   0  0  0  0  0  0  0  0  0  0  0  0
    3.3661   -1.2157   -0.2313 C   0  0  0  0  0  0  0  0  0  0  0  0
    4.1486   -1.8104   -1.2360 C   0  0  0  0  0  0  0  0  0  0  0  0
    4.2870   -1.2615   -2.1827 H   0  0  0  0  0  0  0  0  0  0  0  0
    4.7366   -3.0672   -1.0223 C   0  0  0  0  0  0  0  0  0  0  0  0
    5.3491   -3.5239   -1.8149 H   0  0  0  0  0  0  0  0  0  0  0  0
    4.5472   -3.7374    0.1958 C   0  0  0  0  0  0  0  0  0  0  0  0
    5.0104   -4.7216    0.3648 H   0  0  0  0  0  0  0  0  0  0  0  0
    3.7735   -3.1401    1.2061 C   0  0  0  0  0  0  0  0  0  0  0  0
    3.6339   -3.6523    2.1707 H   0  0  0  0  0  0  0  0  0  0  0  0
    3.1928   -1.8801    1.0006 C   0  0  0  0  0  0  0  0  0  0  0  0
    2.6092   -1.4131    1.8036 H   0  0  0  0  0  0  0  0  0  0  0  0
  1  3  1  0  0  0  0
  2  4  1  0  0  0  0
  3 34  1  0  0  0  0
  4 56  1  0  0  0  0
  4  6  1  0  0  0  0
  4 45  1  0  0  0  0
  5  3  1  0  0  0  0
  5  7  1  0  0  0  0
  7  8  1  1  0  0  0
  9 11  1  0  0  0  0
  9  7  1  0  0  0  0
  9 12  1  0  0  0  0
 10  9  1  0  0  0  0
 12 13  1  0  0  0  0
 14 12  1  0  0  0  0
 15 12  1  0  0  0  0
 15 18  1  0  0  0  0
 15 16  1  0  0  0  0
 17 15  1  0  0  0  0
 18 20  1  0  0  0  0
 19 18  1  0  0  0  0
 21 22  1  6  0  0  0
 21  6  1  0  0  0  0
 21  7  1  0  0  0  0
 21 18  1  0  0  0  0
 23 32  1  0  0  0  0
 23  3  1  0  0  0  0
 24 23  2  0  0  0  0
 25 24  1  0  0  0  0
 26 28  2  0  0  0  0
 26 24  1  0  0  0  0
 27 26  1  0  0  0  0
 28 30  1  0  0  0  0
 29 28  1  0  0  0  0
 30 31  1  0  0  0  0
 30 32  2  0  0  0  0
 32 33  1  0  0  0  0
 34 43  2  0  0  0  0
 34 35  1  0  0  0  0
 35 37  2  0  0  0  0
 36 35  1  0  0  0  0
 37 38  1  0  0  0  0
 37 39  1  0  0  0  0
 39 40  1  0  0  0  0
 41 42  1  0  0  0  0
 41 39  2  0  0  0  0
 43 41  1  0  0  0  0
 44 43  1  0  0  0  0
 45 54  1  0  0  0  0
 46 45  2  0  0  0  0
 46 48  1  0  0  0  0
 47 46  1  0  0  0  0
 48 50  2  0  0  0  0
 49 48  1  0  0  0  0
 50 52  1  0  0  0  0
 50 51  1  0  0  0  0
 52 53  1  0  0  0  0
 54 55  1  0  0  0  0
 54 52  2  0  0  0  0
 56 65  1  0  0  0  0
 57 59  1  0  0  0  0
 57 56  2  0  0  0  0
 58 57  1  0  0  0  0
 59 61  2  0  0  0  0
 60 59  1  0  0  0  0
 61 62  1  0  0  0  0
 61 63  1  0  0  0  0
 63 64  1  0  0  0  0
 65 63  2  0  0  0  0
 65 66  1  0  0  0  0
M  END
