4,5
 OpenBabel05122313053D

 45 47  0  0  1  0  0  0  0  0999 V2000
   -1.2393   -3.2465   -0.6607 O   0  0  0  0  0  0  0  0  0  0  0  0
   -2.2454   -3.0686   -0.6534 H   0  0  0  0  0  0  0  0  0  0  0  0
    1.3125    2.0840   -1.7090 O   0  0  0  0  0  0  0  0  0  0  0  0
   -0.7695   -2.0856   -0.1632 N   0  0  0  0  0  2  0  0  0  0  0  0
   -0.0000    0.4482   -0.0568 N   0  0  0  0  0  0  0  0  0  0  0  0
    0.2004    0.4277   -1.0714 H   0  0  0  0  0  0  0  0  0  0  0  0
    2.3980   -0.3477    0.1420 C   0  0  1  0  0  0  0  0  0  0  0  0
    2.7131    0.6724    0.4416 H   0  0  0  0  0  0  0  0  0  0  0  0
    0.9377   -0.5984    0.5792 C   0  0  2  0  0  0  0  0  0  0  0  0
    0.5155   -1.9416   -0.0153 C   0  0  2  0  0  3  0  0  0  0  0  0
    1.5289   -2.9188   -0.5543 C   0  0  0  0  0  0  0  0  0  0  0  0
    1.1122   -3.3373   -1.4955 H   0  0  0  0  0  0  0  0  0  0  0  0
    1.6574   -3.7901    0.1241 H   0  0  0  0  0  0  0  0  0  0  0  0
    2.8625   -2.1969   -0.8148 C   0  0  2  0  0  0  0  0  0  0  0  0
    3.5629   -2.8446   -1.3807 H   0  0  0  0  0  0  0  0  0  0  0  0
    3.4000   -1.5256    0.4922 C   0  0  0  0  0  0  0  0  0  0  0  0
    2.5507   -0.7749   -1.3491 C   0  0  0  0  0  0  0  0  0  0  0  0
    1.6668   -0.6699   -2.0121 H   0  0  0  0  0  0  0  0  0  0  0  0
    3.4069   -0.2890   -1.8480 H   0  0  0  0  0  0  0  0  0  0  0  0
    3.3295   -2.3334    1.7888 C   0  0  0  0  0  0  0  0  0  0  0  0
    4.1084   -3.1240    1.7646 H   0  0  0  0  0  0  0  0  0  0  0  0
    2.3622   -2.8410    1.9546 H   0  0  0  0  0  0  0  0  0  0  0  0
    3.5373   -1.6968    2.6725 H   0  0  0  0  0  0  0  0  0  0  0  0
    4.8467   -1.0266    0.3385 C   0  0  0  0  0  0  0  0  0  0  0  0
    5.1271   -0.3945    1.2060 H   0  0  0  0  0  0  0  0  0  0  0  0
    5.0086   -0.4265   -0.5767 H   0  0  0  0  0  0  0  0  0  0  0  0
    5.5493   -1.8845    0.3069 H   0  0  0  0  0  0  0  0  0  0  0  0
    0.7235   -0.5510    2.0988 C   0  0  0  0  0  0  0  0  0  0  0  0
    1.2000   -1.4098    2.5947 H   0  0  0  0  0  0  0  0  0  0  0  0
   -0.3611   -0.5887    2.3207 H   0  0  0  0  0  0  0  0  0  0  0  0
    1.1490    0.3773    2.5252 H   0  0  0  0  0  0  0  0  0  0  0  0
    0.1922    1.8224    0.3424 C   0  0  0  0  0  0  0  0  0  0  0  0
   -0.3425    2.3486    1.5251 C   0  0  0  0  0  0  0  0  0  0  0  0
   -0.9706    1.7069    2.1547 H   0  0  0  0  0  0  0  0  0  0  0  0
   -0.1223    3.6911    1.8650 C   0  0  0  0  0  0  0  0  0  0  0  0
   -0.5472    4.0938    2.7953 H   0  0  0  0  0  0  0  0  0  0  0  0
    0.6015    4.5207    0.9980 C   0  0  0  0  0  0  0  0  0  0  0  0
    0.7659    5.5783    1.2530 H   0  0  0  0  0  0  0  0  0  0  0  0
    1.1007    4.0237   -0.2164 C   0  0  0  0  0  0  0  0  0  0  0  0
    1.6446    4.6898   -0.8989 H   0  0  0  0  0  0  0  0  0  0  0  0
    0.8943    2.6737   -0.5489 C   0  0  0  0  0  0  0  0  0  0  0  0
    1.9250    2.8874   -2.7037 C   0  0  0  0  0  0  0  0  0  0  0  0
    1.2516    3.7063   -3.0376 H   0  0  0  0  0  0  0  0  0  0  0  0
    2.1357    2.2178   -3.5576 H   0  0  0  0  0  0  0  0  0  0  0  0
    2.8804    3.3275   -2.3420 H   0  0  0  0  0  0  0  0  0  0  0  0
  1  2  1  0  0  0  0
  1  4  1  0  0  0  0
  3 41  1  0  0  0  0
  5 32  1  0  0  0  0
  6  5  1  0  0  0  0
  7  8  1  1  0  0  0
  7 16  1  0  0  0  0
  7  9  1  0  0  0  0
  9  5  1  6  0  0  0
  9 28  1  0  0  0  0
 10  4  1  6  0  0  0
 10  9  1  0  0  0  0
 11 10  1  0  0  0  0
 11 13  1  0  0  0  0
 12 11  1  0  0  0  0
 14 15  1  6  0  0  0
 14 11  1  0  0  0  0
 14 16  1  0  0  0  0
 16 20  1  0  0  0  0
 17 14  1  0  0  0  0
 17  7  1  0  0  0  0
 18 17  1  0  0  0  0
 19 17  1  0  0  0  0
 20 22  1  0  0  0  0
 20 23  1  0  0  0  0
 21 20  1  0  0  0  0
 24 16  1  0  0  0  0
 24 25  1  0  0  0  0
 26 24  1  0  0  0  0
 27 24  1  0  0  0  0
 28 30  1  0  0  0  0
 28 31  1  0  0  0  0
 28 29  1  0  0  0  0
 32 33  1  0  0  0  0
 33 35  2  0  0  0  0
 33 34  1  0  0  0  0
 35 36  1  0  0  0  0
 37 38  1  0  0  0  0
 37 35  1  0  0  0  0
 39 37  2  0  0  0  0
 40 39  1  0  0  0  0
 41 39  1  0  0  0  0
 41 32  2  0  0  0  0
 42 45  1  0  0  0  0
 42  3  1  0  0  0  0
 43 42  1  0  0  0  0
 44 42  1  0  0  0  0
M  END
