1,2
 OpenBabel05122313053D

 23 24  0  0  1  0  0  0  0  0999 V2000
   -1.5019   -0.4332   -0.0679 N   0  0  0  0  0  2  0  0  0  0  0  0
    0.7919    0.8867    0.1472 N   0  0  0  0  0  2  0  0  0  0  0  0
   -2.6041   -1.1954   -0.0876 C   0  0  0  0  0  3  0  0  0  0  0  0
   -2.4379   -2.2847   -0.1083 H   0  0  0  0  0  0  0  0  0  0  0  0
   -3.8926   -0.6456   -0.0735 C   0  0  0  0  0  0  0  0  0  0  0  0
   -4.7743   -1.3013   -0.0935 H   0  0  0  0  0  0  0  0  0  0  0  0
   -4.0174    0.7507   -0.0296 C   0  0  0  0  0  0  0  0  0  0  0  0
   -5.0106    1.2236   -0.0154 H   0  0  0  0  0  0  0  0  0  0  0  0
   -2.8629    1.5420    0.0064 C   0  0  0  0  0  0  0  0  0  0  0  0
   -2.9442    2.6358    0.0589 H   0  0  0  0  0  0  0  0  0  0  0  0
   -1.6018    0.9158   -0.0114 C   0  0  0  0  0  0  0  0  0  0  0  0
   -0.3111    1.6584    0.0508 C   0  0  1  0  0  3  0  0  0  0  0  0
   -0.2111    3.0604    0.0233 C   0  0  0  0  0  0  0  0  0  0  0  0
   -1.1040    3.6931   -0.0647 H   0  0  0  0  0  0  0  0  0  0  0  0
    1.0632    3.6385    0.1040 C   0  0  0  0  0  0  0  0  0  0  0  0
    1.1727    4.7331    0.0844 H   0  0  0  0  0  0  0  0  0  0  0  0
    2.1928    2.8180    0.2062 C   0  0  0  0  0  0  0  0  0  0  0  0
    3.2020    3.2489    0.2712 H   0  0  0  0  0  0  0  0  0  0  0  0
    2.0292    1.4175    0.2214 C   0  0  0  0  0  0  0  0  0  0  0  0
    3.1597    0.4406    0.2989 C   0  0  0  0  0  0  0  0  0  0  0  0
    3.1587   -0.1748   -0.6293 H   0  0  0  0  0  0  0  0  0  0  0  0
    2.9811   -0.2716    1.1331 H   0  0  0  0  0  0  0  0  0  0  0  0
    4.1389    0.9361    0.4252 H   0  0  0  0  0  0  0  0  0  0  0  0
  1 11  1  0  0  0  0
  2 19  1  0  0  0  0
  3  5  1  0  0  0  0
  3  1  1  0  0  0  0
  4  3  1  0  0  0  0
  5  7  2  0  0  0  0
  6  5  1  0  0  0  0
  7  8  1  0  0  0  0
  7  9  1  0  0  0  0
  9 10  1  0  0  0  0
 11  9  2  0  0  0  0
 12 11  1  1  0  0  0
 12  2  1  0  0  0  0
 13 12  1  0  0  0  0
 13 15  2  0  0  0  0
 14 13  1  0  0  0  0
 15 17  1  0  0  0  0
 16 15  1  0  0  0  0
 17 19  2  0  0  0  0
 17 18  1  0  0  0  0
 19 20  1  0  0  0  0
 20 23  1  0  0  0  0
 20 22  1  0  0  0  0
 21 20  1  0  0  0  0
M  END
