2,3
 OpenBabel05122313053D

 15 15  0  0  0  0  0  0  0  0999 V2000
    0.4785   -0.5912    3.0121 O   0  0  0  0  0  0  0  0  0  0  0  0
    0.2417    0.2437    1.9969 N   0  0  0  0  0  2  0  0  0  0  0  0
    0.0743    1.6711   -0.1350 N   0  0  0  0  0  2  0  0  0  0  0  0
    0.0060    2.3480   -1.2970 C   0  0  0  0  0  3  0  0  0  0  0  0
    0.0286    3.7485   -1.3426 C   0  0  0  0  0  0  0  0  0  0  0  0
    0.1169    4.4688   -0.1410 C   0  0  0  0  0  0  0  0  0  0  0  0
    0.1797    3.7687    1.0699 C   0  0  0  0  0  0  0  0  0  0  0  0
    0.1588    2.3623    1.0461 C   0  0  0  0  0  0  0  0  0  0  0  0
    0.2648    1.5286    2.2306 C   0  0  0  0  0  3  0  0  0  0  0  0
    0.6267   -1.5083    2.5567 H   0  0  0  0  0  0  0  0  0  0  0  0
   -0.0942    1.7451   -2.2115 H   0  0  0  0  0  0  0  0  0  0  0  0
   -0.0279    4.2592   -2.3140 H   0  0  0  0  0  0  0  0  0  0  0  0
    0.1340    5.5685   -0.1475 H   0  0  0  0  0  0  0  0  0  0  0  0
    0.2474    4.2952    2.0326 H   0  0  0  0  0  0  0  0  0  0  0  0
    0.4284    1.9281    3.2442 H   0  0  0  0  0  0  0  0  0  0  0  0
  2  9  1  0  0  0  0
  2  1  1  0  0  0  0
  3  8  1  0  0  0  0
  4  3  1  0  0  0  0
  5  4  1  0  0  0  0
  5  6  2  0  0  0  0
  6  7  1  0  0  0  0
  7 14  1  0  0  0  0
  8  7  2  0  0  0  0
  8  9  1  0  0  0  0
  9 15  1  0  0  0  0
 10  1  1  0  0  0  0
 11  4  1  0  0  0  0
 12  5  1  0  0  0  0
 13  6  1  0  0  0  0
M  END
