1,4
 OpenBabel05122313053D

 35 37  0  0  0  0  0  0  0  0999 V2000
    0.3876   -0.5256   -1.2323 N   0  0  0  0  0  2  0  0  0  0  0  0
   -0.5887   -0.1374   -1.9746 C   0  0  0  0  0  3  0  0  0  0  0  0
   -1.7677   -0.9891   -1.8765 C   0  0  0  0  0  0  0  0  0  0  0  0
   -1.6523   -2.0665   -1.0277 N   0  0  0  0  0  2  0  0  0  0  0  0
   -2.6574   -2.9616   -0.9600 C   0  0  0  0  0  0  0  0  0  0  0  0
   -3.8465   -2.7987   -1.6812 C   0  0  0  0  0  0  0  0  0  0  0  0
   -4.0031   -1.6761   -2.5090 C   0  0  0  0  0  0  0  0  0  0  0  0
   -2.9422   -0.7693   -2.6147 C   0  0  0  0  0  0  0  0  0  0  0  0
   -2.9870    0.1159   -3.2633 H   0  0  0  0  0  0  0  0  0  0  0  0
   -4.9340   -1.5189   -3.0734 H   0  0  0  0  0  0  0  0  0  0  0  0
   -4.6408   -3.5522   -1.5828 H   0  0  0  0  0  0  0  0  0  0  0  0
   -2.4989   -3.8114   -0.2810 H   0  0  0  0  0  0  0  0  0  0  0  0
    1.6332    0.1413   -1.1152 C   0  0  0  0  0  0  0  0  0  0  0  0
    1.6745    1.5215   -0.8296 C   0  0  0  0  0  0  0  0  0  0  0  0
    2.8964    2.1674   -0.6397 C   0  0  0  0  0  0  0  0  0  0  0  0
    4.1180    1.4519   -0.7464 C   0  0  0  0  0  0  0  0  0  0  0  0
    4.0628    0.0722   -1.0818 C   0  0  0  0  0  0  0  0  0  0  0  0
    2.8401   -0.5731   -1.2591 C   0  0  0  0  0  0  0  0  0  0  0  0
    2.8056   -1.6370   -1.5240 H   0  0  0  0  0  0  0  0  0  0  0  0
    5.0012   -0.4879   -1.1995 H   0  0  0  0  0  0  0  0  0  0  0  0
    5.3650    2.0988   -0.5303 C   0  0  0  0  0  0  0  0  0  0  0  0
    6.4481    2.6561   -0.3387 C   0  0  0  0  0  0  0  0  0  0  0  0
    7.6982    3.3002   -0.1188 C   0  0  0  0  0  0  0  0  0  0  0  0
    8.9163    2.5859   -0.2672 C   0  0  0  0  0  0  0  0  0  0  0  0
   10.1422    3.2240   -0.0499 C   0  0  0  0  0  0  0  0  0  0  0  0
   10.1820    4.5796    0.3178 C   0  0  0  0  0  0  0  0  0  0  0  0
    8.9832    5.2973    0.4675 C   0  0  0  0  0  0  0  0  0  0  0  0
    7.7515    4.6695    0.2527 C   0  0  0  0  0  0  0  0  0  0  0  0
    6.8111    5.2275    0.3682 H   0  0  0  0  0  0  0  0  0  0  0  0
    9.0094    6.3594    0.7547 H   0  0  0  0  0  0  0  0  0  0  0  0
   11.1485    5.0777    0.4873 H   0  0  0  0  0  0  0  0  0  0  0  0
   11.0786    2.6581   -0.1694 H   0  0  0  0  0  0  0  0  0  0  0  0
    8.8807    1.5257   -0.5567 H   0  0  0  0  0  0  0  0  0  0  0  0
    2.9226    3.2403   -0.4020 H   0  0  0  0  0  0  0  0  0  0  0  0
    0.7265    2.0729   -0.7702 H   0  0  0  0  0  0  0  0  0  0  0  0
  1 13  1  0  0  0  0
  2  3  2  0  0  0  0
  2  1  1  0  0  0  0
  3  4  1  0  0  0  0
  4  5  1  0  0  0  0
  5 12  1  0  0  0  0
  6 11  1  0  0  0  0
  6  5  2  0  0  0  0
  7  6  1  0  0  0  0
  8  7  2  0  0  0  0
  8  3  1  0  0  0  0
  9  8  1  0  0  0  0
 10  7  1  0  0  0  0
 13 14  1  0  0  0  0
 14 35  1  0  0  0  0
 14 15  2  0  0  0  0
 15 34  1  0  0  0  0
 16 15  1  0  0  0  0
 16 21  1  0  0  0  0
 17 16  2  0  0  0  0
 18 13  2  0  0  0  0
 18 17  1  0  0  0  0
 19 18  1  0  0  0  0
 20 17  1  0  0  0  0
 21 22  3  0  0  0  0
 22 23  1  0  0  0  0
 23 28  1  0  0  0  0
 24 23  2  0  0  0  0
 24 25  1  0  0  0  0
 25 26  2  0  0  0  0
 26 27  1  0  0  0  0
 26 31  1  0  0  0  0
 27 30  1  0  0  0  0
 28 29  1  0  0  0  0
 28 27  2  0  0  0  0
 32 25  1  0  0  0  0
 33 24  1  0  0  0  0
M  END
