2,5
 OpenBabel05122313053D

 25 24  0  0  0  0  0  0  0  0999 V2000
    0.1518   -2.1749   -0.4456 S   0  0  0  0  0  0  0  0  0  0  0  0
    1.3306    0.0626   -0.1713 N   0  0  0  0  0  2  0  0  0  0  0  0
    2.3039    0.9019    0.2088 N   0  0  0  0  0  2  0  0  0  0  0  0
   -1.3627    2.1991   -0.8124 O   0  5  0  0  0  0  0  0  0  0  0  0
   -0.1276    2.0384   -0.5271 N   0  3  0  0  0  2  0  0  0  0  0  0
    2.6499   -1.7269    0.5983 N   0  0  0  0  0  0  0  0  0  0  0  0
    1.5222   -1.2591    0.0408 C   0  0  0  0  0  0  0  0  0  0  0  0
    2.1020    2.1998    0.2047 C   0  0  0  0  0  0  0  0  0  0  0  0
    0.8237    2.8362   -0.1238 C   0  0  0  0  0  0  0  0  0  0  0  0
    3.2561    3.0736    0.6122 C   0  0  0  0  0  0  0  0  0  0  0  0
    0.5627    4.3063    0.0310 C   0  0  0  0  0  0  0  0  0  0  0  0
    2.9684   -3.1359    0.7531 C   0  0  0  0  0  0  0  0  0  0  0  0
    3.6478   -3.7449   -0.4750 C   0  0  0  0  0  0  0  0  0  0  0  0
    3.5425    3.7766   -0.1986 H   0  0  0  0  0  0  0  0  0  0  0  0
    4.1289    2.4400    0.8523 H   0  0  0  0  0  0  0  0  0  0  0  0
    3.0118    3.6919    1.5016 H   0  0  0  0  0  0  0  0  0  0  0  0
    0.6866    4.6280    1.0858 H   0  0  0  0  0  0  0  0  0  0  0  0
   -0.4714    4.5346   -0.2871 H   0  0  0  0  0  0  0  0  0  0  0  0
    1.2649    4.9076   -0.5812 H   0  0  0  0  0  0  0  0  0  0  0  0
    3.6064   -3.2430    1.6549 H   0  0  0  0  0  0  0  0  0  0  0  0
    2.0159   -3.6655    0.9654 H   0  0  0  0  0  0  0  0  0  0  0  0
    3.8705   -4.8171   -0.3029 H   0  0  0  0  0  0  0  0  0  0  0  0
    4.6013   -3.2287   -0.7073 H   0  0  0  0  0  0  0  0  0  0  0  0
    2.9846   -3.6665   -1.3592 H   0  0  0  0  0  0  0  0  0  0  0  0
    3.3508   -0.9949    0.7706 H   0  0  0  0  0  0  0  0  0  0  0  0
  1  7  2  0  0  0  0
  2  7  1  0  0  0  0
  2  3  1  0  0  0  0
  4  5  1  0  0  0  0
  5  9  1  0  0  0  0
  6 12  1  0  0  0  0
  6 25  1  0  0  0  0
  7  6  1  0  0  0  0
  8  3  1  0  0  0  0
  8 10  1  0  0  0  0
  9 11  1  0  0  0  0
  9  8  2  0  0  0  0
 10 15  1  0  0  0  0
 10 16  1  0  0  0  0
 11 17  1  0  0  0  0
 12 21  1  0  0  0  0
 12 20  1  0  0  0  0
 13 22  1  0  0  0  0
 13 12  1  0  0  0  0
 14 10  1  0  0  0  0
 18 11  1  0  0  0  0
 19 11  1  0  0  0  0
 23 13  1  0  0  0  0
 24 13  1  0  0  0  0
M  CHG  2   4  -1   5   1
M  END
