2,3
 OpenBabel05122313053D

 20 21  0  0  0  0  0  0  0  0999 V2000
   -3.0978    2.5982   -0.0362 N   0  0  0  0  0  0  0  0  0  0  0  0
   -3.0722    1.2664   -0.0208 N   0  0  0  0  0  2  0  0  0  0  0  0
   -3.0722   -1.2663    0.0211 N   0  0  0  0  0  0  0  0  0  0  0  0
   -3.0978   -2.5981    0.0364 N   0  0  0  0  0  2  0  0  0  0  0  0
   -4.8082    4.3763   -0.0996 C   0  0  0  0  0  0  0  0  0  0  0  0
   -4.4034    2.9376   -0.0336 C   0  0  0  0  0  0  0  0  0  0  0  0
   -5.2428    1.7952   -0.0202 C   0  0  0  0  0  0  0  0  0  0  0  0
   -6.3358    1.7635   -0.0123 H   0  0  0  0  0  0  0  0  0  0  0  0
   -4.3402    0.7247   -0.0113 C   0  0  0  0  0  0  0  0  0  0  0  0
   -4.3402   -0.7247    0.0116 C   0  0  0  0  0  0  0  0  0  0  0  0
   -5.2428   -1.7952    0.0205 C   0  0  0  0  0  0  0  0  0  0  0  0
   -6.3358   -1.7635    0.0127 H   0  0  0  0  0  0  0  0  0  0  0  0
   -4.4033   -2.9376    0.0338 C   0  0  0  0  0  0  0  0  0  0  0  0
   -4.8081   -4.3763    0.1001 C   0  0  0  0  0  0  0  0  0  0  0  0
   -4.0811    5.1517    0.7418 F   0  0  0  0  0  0  0  0  0  0  0  0
   -4.6491    4.9024   -1.3440 F   0  0  0  0  0  0  0  0  0  0  0  0
   -6.1164    4.5228    0.2268 F   0  0  0  0  0  0  0  0  0  0  0  0
   -4.0798   -5.1521   -0.7398 F   0  0  0  0  0  0  0  0  0  0  0  0
   -4.6508   -4.9017    1.3450 F   0  0  0  0  0  0  0  0  0  0  0  0
   -6.1159   -4.5231   -0.2280 F   0  0  0  0  0  0  0  0  0  0  0  0
  1  6  2  0  0  0  0
  1  2  1  0  0  0  0
  2  9  1  0  0  0  0
  3  4  1  0  0  0  0
  5  6  1  0  0  0  0
  5 17  1  0  0  0  0
  5 15  1  0  0  0  0
  6  7  1  0  0  0  0
  7  8  1  0  0  0  0
  7  9  2  0  0  0  0
  9 10  1  0  0  0  0
 10 11  1  0  0  0  0
 10  3  2  0  0  0  0
 11 13  2  0  0  0  0
 12 11  1  0  0  0  0
 13  4  1  0  0  0  0
 13 14  1  0  0  0  0
 14 19  1  0  0  0  0
 16  5  1  0  0  0  0
 18 14  1  0  0  0  0
 20 14  1  0  0  0  0
M  END
