1,9
 OpenBabel05122313053D

 10  9  0  0  0  0  0  0  0  0999 V2000
    1.2839    1.3335   -0.0018 N   0  0  0  0  0  2  0  0  0  0  0  0
    0.9924    2.3206   -0.0043 H   0  0  0  0  0  0  0  0  0  0  0  0
    2.5773    1.2177   -0.0017 C   0  0  0  0  0  3  0  0  0  0  0  0
    3.2486    2.0937   -0.0035 H   0  0  0  0  0  0  0  0  0  0  0  0
    3.2111    0.0000    0.0002 N   0  0  0  0  0  0  0  0  0  0  0  0
    4.2338    0.0000    0.0007 H   0  0  0  0  0  0  0  0  0  0  0  0
    2.5773   -1.2177    0.0008 C   0  0  0  0  0  3  0  0  0  0  0  0
    3.2486   -2.0937    0.0016 H   0  0  0  0  0  0  0  0  0  0  0  0
    1.2839   -1.3335    0.0002 N   0  0  0  0  0  2  0  0  0  0  0  0
    0.9924   -2.3206    0.0002 H   0  0  0  0  0  0  0  0  0  0  0  0
  1  3  1  0  0  0  0
  2  1  1  0  0  0  0
  3  5  1  0  0  0  0
  4  3  1  0  0  0  0
  5  6  1  0  0  0  0
  5  7  1  0  0  0  0
  7  8  1  0  0  0  0
  9 10  1  0  0  0  0
  9  7  1  0  0  0  0
M  END
