3,5
 OpenBabel05122313053D

 40 42  0  0  1  0  0  0  0  0999 V2000
   -4.9148   -0.4167   -0.5637 Br  0  0  0  0  0  0  0  0  0  0  0  0
    5.8114   -0.4297    0.1500 Br  0  0  0  0  0  0  0  0  0  0  0  0
    0.2282   -0.0635    0.5831 N   0  0  0  0  0  0  0  0  0  0  0  0
   -2.3873   -1.0636    0.3925 N   0  0  0  0  0  0  0  0  0  0  0  0
    0.0947    2.6159   -0.0018 N   0  0  0  0  0  2  0  0  0  0  0  0
    3.1049   -0.6930   -0.4111 N   0  0  0  0  0  0  0  0  0  0  0  0
   -0.2112   -1.1708    1.4371 C   0  0  0  0  0  0  0  0  0  0  0  0
   -0.5509   -0.7046    2.3898 H   0  0  0  0  0  0  0  0  0  0  0  0
    0.6020   -1.8988    1.6598 H   0  0  0  0  0  0  0  0  0  0  0  0
   -1.4106   -1.8767    0.8503 C   0  0  0  0  0  0  0  0  0  0  0  0
   -1.5424   -3.2720    0.8379 C   0  0  0  0  0  0  0  0  0  0  0  0
   -0.7238   -3.9060    1.2085 H   0  0  0  0  0  0  0  0  0  0  0  0
   -2.7377   -3.8289    0.3526 C   0  0  0  0  0  0  0  0  0  0  0  0
   -2.8759   -4.9204    0.3254 H   0  0  0  0  0  0  0  0  0  0  0  0
   -3.7600   -2.9838   -0.0889 C   0  0  0  0  0  0  0  0  0  0  0  0
   -4.7177   -3.3720   -0.4602 H   0  0  0  0  0  0  0  0  0  0  0  0
   -3.5268   -1.5946   -0.0397 C   0  0  0  0  0  0  0  0  0  0  0  0
    1.1110    0.8771    1.3014 C   0  0  0  0  0  0  0  0  0  0  0  0
    2.1056    0.4445    1.5358 H   0  0  0  0  0  0  0  0  0  0  0  0
    0.5743    1.1270    2.2448 H   0  0  0  0  0  0  0  0  0  0  0  0
    1.2524    2.1500    0.5055 C   0  0  1  0  0  3  0  0  0  0  0  0
    2.4738    2.8037    0.2840 C   0  0  0  0  0  0  0  0  0  0  0  0
    3.4078    2.3647    0.6633 H   0  0  0  0  0  0  0  0  0  0  0  0
    2.4671    3.9938   -0.4578 C   0  0  0  0  0  0  0  0  0  0  0  0
    3.4074    4.5332   -0.6484 H   0  0  0  0  0  0  0  0  0  0  0  0
    1.2545    4.4730   -0.9769 C   0  0  0  0  0  0  0  0  0  0  0  0
    1.2141    5.3931   -1.5775 H   0  0  0  0  0  0  0  0  0  0  0  0
    0.0862    3.7354   -0.7398 C   0  0  0  0  0  0  0  0  0  0  0  0
   -0.8886    4.0152   -1.1715 H   0  0  0  0  0  0  0  0  0  0  0  0
    0.7062   -0.4826   -0.7563 C   0  0  0  0  0  0  0  0  0  0  0  0
    0.8866    0.4358   -1.3481 H   0  0  0  0  0  0  0  0  0  0  0  0
   -0.1267   -1.0110   -1.2587 H   0  0  0  0  0  0  0  0  0  0  0  0
    1.9542   -1.3313   -0.7268 C   0  0  0  0  0  0  0  0  0  0  0  0
    1.9280   -2.7163   -0.9723 C   0  0  0  0  0  0  0  0  0  0  0  0
    0.9784   -3.2114   -1.2239 H   0  0  0  0  0  0  0  0  0  0  0  0
    3.1288   -3.4409   -0.8978 C   0  0  0  0  0  0  0  0  0  0  0  0
    3.1422   -4.5237   -1.0947 H   0  0  0  0  0  0  0  0  0  0  0  0
    4.3170   -2.7766   -0.5698 C   0  0  0  0  0  0  0  0  0  0  0  0
    5.2796   -3.3003   -0.4986 H   0  0  0  0  0  0  0  0  0  0  0  0
    4.2217   -1.3924   -0.3315 C   0  0  0  0  0  0  0  0  0  0  0  0
  1 17  1  0  0  0  0
  3 18  1  0  0  0  0
  3  7  1  0  0  0  0
  4 10  1  0  0  0  0
  5 21  1  0  0  0  0
  6 40  1  0  0  0  0
  7  9  1  0  0  0  0
  7  8  1  0  0  0  0
 10  7  1  0  0  0  0
 11 10  2  0  0  0  0
 11 12  1  0  0  0  0
 13 11  1  0  0  0  0
 14 13  1  0  0  0  0
 15 17  1  0  0  0  0
 15 13  2  0  0  0  0
 16 15  1  0  0  0  0
 17  4  2  0  0  0  0
 18 19  1  0  0  0  0
 18 20  1  0  0  0  0
 21 18  1  6  0  0  0
 22 21  1  0  0  0  0
 22 23  1  0  0  0  0
 24 22  2  0  0  0  0
 25 24  1  0  0  0  0
 26 28  2  0  0  0  0
 26 24  1  0  0  0  0
 27 26  1  0  0  0  0
 28  5  1  0  0  0  0
 29 28  1  0  0  0  0
 30 33  1  0  0  0  0
 30  3  1  0  0  0  0
 31 30  1  0  0  0  0
 32 30  1  0  0  0  0
 33  6  2  0  0  0  0
 34 36  2  0  0  0  0
 34 33  1  0  0  0  0
 35 34  1  0  0  0  0
 36 38  1  0  0  0  0
 37 36  1  0  0  0  0
 38 39  1  0  0  0  0
 38 40  2  0  0  0  0
 40  2  1  0  0  0  0
M  END
