1,18
 OpenBabel05122313053D

 26 27  0  0  1  0  0  0  0  0999 V2000
    1.2762   -0.2466   -0.1204 N   0  0  0  0  0  2  0  0  0  0  0  0
    2.6268   -0.1285   -0.1546 C   0  0  0  0  0  3  0  0  0  0  0  0
    3.0214    0.8942   -0.1986 H   0  0  0  0  0  0  0  0  0  0  0  0
    3.4761   -1.2302   -0.1163 C   0  0  0  0  0  0  0  0  0  0  0  0
    2.9255   -2.5291   -0.0107 C   0  0  0  0  0  0  0  0  0  0  0  0
    3.5782   -3.4115    0.0417 H   0  0  0  0  0  0  0  0  0  0  0  0
    1.5422   -2.6554    0.0385 C   0  0  0  0  0  0  0  0  0  0  0  0
    1.0798   -3.6472    0.1328 H   0  0  0  0  0  0  0  0  0  0  0  0
    0.7260   -1.5066   -0.0236 C   0  0  0  0  0  0  0  0  0  0  0  0
   -0.7258   -1.5067   -0.0235 C   0  0  2  0  0  3  0  0  0  0  0  0
   -1.5419   -2.6555    0.0387 C   0  0  0  0  0  0  0  0  0  0  0  0
   -1.0795   -3.6473    0.1329 H   0  0  0  0  0  0  0  0  0  0  0  0
   -2.9252   -2.5293   -0.0103 C   0  0  0  0  0  0  0  0  0  0  0  0
   -3.5779   -3.4117    0.0423 H   0  0  0  0  0  0  0  0  0  0  0  0
   -3.4760   -1.2304   -0.1158 C   0  0  0  0  0  0  0  0  0  0  0  0
   -2.6268   -0.1287   -0.1541 C   0  0  0  0  0  0  0  0  0  0  0  0
   -3.0214    0.8940   -0.1978 H   0  0  0  0  0  0  0  0  0  0  0  0
   -1.2761   -0.2466   -0.1201 N   0  0  0  0  0  2  0  0  0  0  0  0
    4.9720   -1.0510   -0.1967 C   0  0  0  0  0  0  0  0  0  0  0  0
    5.4595   -1.5610   -1.3554 F   0  0  0  0  0  0  0  0  0  0  0  0
    5.5966   -1.7010    0.8134 F   0  0  0  0  0  0  0  0  0  0  0  0
    5.3350    0.2498   -0.1400 F   0  0  0  0  0  0  0  0  0  0  0  0
   -4.9718   -1.0512   -0.1966 C   0  0  0  0  0  0  0  0  0  0  0  0
   -5.3352    0.2493   -0.1348 F   0  0  0  0  0  0  0  0  0  0  0  0
   -5.4583   -1.5564   -1.3579 F   0  0  0  0  0  0  0  0  0  0  0  0
   -5.5972   -1.7057    0.8101 F   0  0  0  0  0  0  0  0  0  0  0  0
  1  9  1  0  0  0  0
  2  1  1  0  0  0  0
  2  4  1  0  0  0  0
  3  2  1  0  0  0  0
  4  5  2  0  0  0  0
  5  7  1  0  0  0  0
  5  6  1  0  0  0  0
  7  8  1  0  0  0  0
  9  7  2  0  0  0  0
 10  9  1  6  0  0  0
 10 11  1  0  0  0  0
 11 12  1  0  0  0  0
 13 11  2  0  0  0  0
 13 14  1  0  0  0  0
 15 13  1  0  0  0  0
 16 18  1  0  0  0  0
 16 15  2  0  0  0  0
 17 16  1  0  0  0  0
 18 10  1  0  0  0  0
 19 22  1  0  0  0  0
 19  4  1  0  0  0  0
 19 21  1  0  0  0  0
 20 19  1  0  0  0  0
 23 24  1  0  0  0  0
 23 15  1  0  0  0  0
 23 26  1  0  0  0  0
 25 23  1  0  0  0  0
M  END
