1,2
 OpenBabel05122313053D

 36 39  0  0  1  0  0  0  0  0999 V2000
    0.9464   -0.0253    0.1508 N   0  0  0  0  0  2  0  0  0  0  0  0
   -1.7057   -0.5166   -0.0731 N   0  0  0  0  0  2  0  0  0  0  0  0
    1.7718    2.0431   -0.1172 N   0  0  0  0  0  0  0  0  0  0  0  0
   -0.7519    1.7605    0.1316 C   0  0  0  0  0  0  0  0  0  0  0  0
    0.6101    1.2769    0.0318 C   0  0  2  0  0  3  0  0  0  0  0  0
   -3.2145    1.3966    0.0663 C   0  0  0  0  0  0  0  0  0  0  0  0
   -1.0175    3.1276    0.3737 C   0  0  0  0  0  0  0  0  0  0  0  0
   -0.1868    3.8153    0.5595 H   0  0  0  0  0  0  0  0  0  0  0  0
   -3.4104    2.7929    0.2539 C   0  0  0  0  0  0  0  0  0  0  0  0
   -4.4407    3.1778    0.2801 H   0  0  0  0  0  0  0  0  0  0  0  0
    3.1726   -1.2426    0.2628 C   0  0  0  0  0  0  0  0  0  0  0  0
    2.7495   -2.2436    0.4226 H   0  0  0  0  0  0  0  0  0  0  0  0
    2.8580    1.1810   -0.0322 C   0  0  0  0  0  0  0  0  0  0  0  0
    4.5512   -1.0167    0.1930 C   0  0  0  0  0  0  0  0  0  0  0  0
    5.2430   -1.8663    0.2884 H   0  0  0  0  0  0  0  0  0  0  0  0
   -2.7818   -1.3475   -0.2241 C   0  0  0  0  0  0  0  0  0  0  0  0
   -4.3205    0.5154   -0.0748 C   0  0  0  0  0  0  0  0  0  0  0  0
   -5.3402    0.9261   -0.0548 H   0  0  0  0  0  0  0  0  0  0  0  0
    2.3316   -0.1243    0.1425 C   0  0  0  0  0  0  0  0  0  0  0  0
   -2.3251    3.6383    0.4317 C   0  0  0  0  0  0  0  0  0  0  0  0
   -2.4786    4.7105    0.6235 H   0  0  0  0  0  0  0  0  0  0  0  0
   -2.4699   -2.8057   -0.3823 C   0  0  0  0  0  0  0  0  0  0  0  0
   -2.0500   -3.0160   -1.3885 H   0  0  0  0  0  0  0  0  0  0  0  0
   -3.3714   -3.4260   -0.2194 H   0  0  0  0  0  0  0  0  0  0  0  0
   -1.7150   -3.1331    0.3764 H   0  0  0  0  0  0  0  0  0  0  0  0
   -1.8753    0.8548    0.0328 C   0  0  2  0  0  3  0  0  0  0  0  0
   -4.0934   -0.8446   -0.2279 C   0  0  0  0  0  0  0  0  0  0  0  0
   -4.9254   -1.5542   -0.3425 H   0  0  0  0  0  0  0  0  0  0  0  0
    4.2430    1.4067   -0.1052 C   0  0  0  0  0  0  0  0  0  0  0  0
    4.6635    2.4145   -0.2304 H   0  0  0  0  0  0  0  0  0  0  0  0
    5.0757    0.2857    0.0090 C   0  0  0  0  0  0  0  0  0  0  0  0
    6.1662    0.4243   -0.0360 H   0  0  0  0  0  0  0  0  0  0  0  0
    1.9024    3.4213   -0.5529 C   0  0  0  0  0  0  0  0  0  0  0  0
    1.0657    3.6946   -1.2211 H   0  0  0  0  0  0  0  0  0  0  0  0
    2.8434    3.5171   -1.1272 H   0  0  0  0  0  0  0  0  0  0  0  0
    1.9383    4.1354    0.2966 H   0  0  0  0  0  0  0  0  0  0  0  0
  3 13  1  0  0  0  0
  3  5  1  0  0  0  0
  4  7  2  0  0  0  0
  5  4  1  1  0  0  0
  5  1  1  0  0  0  0
  6  9  1  0  0  0  0
  7 20  1  0  0  0  0
  7  8  1  0  0  0  0
  9 10  1  0  0  0  0
  9 20  2  0  0  0  0
 11 12  1  0  0  0  0
 13 19  1  0  0  0  0
 14 11  1  0  0  0  0
 14 15  1  0  0  0  0
 16  2  1  0  0  0  0
 17 18  1  0  0  0  0
 17  6  2  0  0  0  0
 19  1  1  0  0  0  0
 19 11  2  0  0  0  0
 20 21  1  0  0  0  0
 22 16  1  0  0  0  0
 22 24  1  0  0  0  0
 22 25  1  0  0  0  0
 23 22  1  0  0  0  0
 26  2  1  1  0  0  0
 26  6  1  0  0  0  0
 26  4  1  0  0  0  0
 27 16  2  0  0  0  0
 27 17  1  0  0  0  0
 28 27  1  0  0  0  0
 29 13  2  0  0  0  0
 29 31  1  0  0  0  0
 30 29  1  0  0  0  0
 31 14  2  0  0  0  0
 32 31  1  0  0  0  0
 33  3  1  0  0  0  0
 33 36  1  0  0  0  0
 34 33  1  0  0  0  0
 35 33  1  0  0  0  0
M  END
