5,6
 OpenBabel05122313053D

 32 33  0  0  1  0  0  0  0  0999 V2000
    2.8407   -1.2471   -1.3899 O   0  0  0  0  0  0  0  0  0  0  0  0
    4.5986   -0.7116   -0.0432 O   0  0  0  0  0  0  0  0  0  0  0  0
   -4.4341   -0.4415   -0.1078 O   0  0  0  0  0  0  0  0  0  0  0  0
   -2.8071   -1.3318   -1.4172 O   0  0  0  0  0  0  0  0  0  0  0  0
    1.4378    0.9346   -0.2615 N   0  0  0  0  0  2  0  0  0  0  0  0
   -1.2419    0.9679   -0.3773 N   0  0  0  0  0  2  0  0  0  0  0  0
    2.7844    0.8325   -0.2761 C   0  0  2  0  0  3  0  0  0  0  0  0
    3.6085    1.9612   -0.1373 C   0  0  0  0  0  0  0  0  0  0  0  0
    4.6949    1.8031   -0.1032 H   0  0  0  0  0  0  0  0  0  0  0  0
    3.0234    3.2283   -0.0553 C   0  0  0  0  0  0  0  0  0  0  0  0
    3.6459    4.1281    0.0562 H   0  0  0  0  0  0  0  0  0  0  0  0
    1.6329    3.3368   -0.1357 C   0  0  0  0  0  0  0  0  0  0  0  0
    1.1524    4.3222   -0.0961 H   0  0  0  0  0  0  0  0  0  0  0  0
    0.8565    2.1672   -0.2259 C   0  0  0  0  0  0  0  0  0  0  0  0
   -0.6161    2.1865   -0.3561 C   0  0  1  0  0  3  0  0  0  0  0  0
   -1.3436    3.3793   -0.5202 C   0  0  0  0  0  0  0  0  0  0  0  0
   -0.8203    4.3434   -0.5172 H   0  0  0  0  0  0  0  0  0  0  0  0
   -2.7298    3.3339   -0.6720 C   0  0  0  0  0  0  0  0  0  0  0  0
   -3.3126    4.2605   -0.7737 H   0  0  0  0  0  0  0  0  0  0  0  0
   -3.3591    2.0842   -0.7003 C   0  0  0  0  0  0  0  0  0  0  0  0
   -4.4452    1.9836   -0.8220 H   0  0  0  0  0  0  0  0  0  0  0  0
   -2.5824    0.9225   -0.5780 C   0  0  0  0  0  0  0  0  0  0  0  0
    3.4916   -0.4867   -0.4937 C   0  0  0  0  0  0  0  0  0  0  0  0
    3.3769   -2.5633   -1.5891 C   0  0  0  0  0  0  0  0  0  0  0  0
    4.4598   -2.5148   -1.8159 H   0  0  0  0  0  0  0  0  0  0  0  0
    2.8078   -2.9976   -2.4290 H   0  0  0  0  0  0  0  0  0  0  0  0
    3.2138   -3.1531   -0.6644 H   0  0  0  0  0  0  0  0  0  0  0  0
   -3.2498   -0.4180   -0.7501 C   0  0  0  0  0  0  0  0  0  0  0  0
   -5.1529   -1.6851   -0.1968 C   0  0  0  0  0  0  0  0  0  0  0  0
   -5.3327   -1.9590   -1.2550 H   0  0  0  0  0  0  0  0  0  0  0  0
   -6.1052   -1.5223    0.3364 H   0  0  0  0  0  0  0  0  0  0  0  0
   -4.5681   -2.4913    0.2886 H   0  0  0  0  0  0  0  0  0  0  0  0
  1 23  1  0  0  0  0
  4 28  2  0  0  0  0
  5 14  1  0  0  0  0
  6 15  1  0  0  0  0
  7 23  1  6  0  0  0
  7  5  1  0  0  0  0
  7  8  1  0  0  0  0
  8  9  1  0  0  0  0
  8 10  2  0  0  0  0
 10 11  1  0  0  0  0
 12 13  1  0  0  0  0
 12 10  1  0  0  0  0
 14 12  2  0  0  0  0
 15 14  1  6  0  0  0
 16 17  1  0  0  0  0
 16 15  1  0  0  0  0
 18 16  2  0  0  0  0
 19 18  1  0  0  0  0
 20 18  1  0  0  0  0
 20 22  2  0  0  0  0
 21 20  1  0  0  0  0
 22  6  1  0  0  0  0
 23  2  2  0  0  0  0
 24  1  1  0  0  0  0
 24 27  1  0  0  0  0
 25 24  1  0  0  0  0
 26 24  1  0  0  0  0
 28 22  1  0  0  0  0
 28  3  1  0  0  0  0
 29  3  1  0  0  0  0
 29 32  1  0  0  0  0
 29 31  1  0  0  0  0
 30 29  1  0  0  0  0
M  END
