5,9
 OpenBabel05122313053D

 70 75  0  0  1  0  0  0  0  0999 V2000
   -2.0676   -1.1164   -0.7558 S   0  0  0  0  0  0  0  0  0  0  0  0
   -2.0194   -2.5711   -1.0498 O   0  0  0  0  0  0  0  0  0  0  0  0
   -2.2352   -0.1443   -1.8596 O   0  0  0  0  0  0  0  0  0  0  0  0
   -3.5432    1.9746   -0.1766 O   0  0  0  0  0  0  0  0  0  0  0  0
    2.5746   -1.2070    0.4680 N   0  0  0  0  0  2  0  0  0  0  0  0
    1.8926   -2.7046   -1.0489 N   0  0  0  0  0  0  0  0  0  0  0  0
   -0.6498   -0.7277    0.0590 N   0  0  0  0  0  0  0  0  0  0  0  0
    0.5803    2.3001   -1.1668 N   0  0  0  0  0  0  0  0  0  0  0  0
    1.8899    1.3526    0.3814 N   0  0  0  0  0  2  0  0  0  0  0  0
    3.6723   -1.5551   -0.2974 C   0  0  0  0  0  0  0  0  0  0  0  0
    5.0118   -1.1362   -0.2311 C   0  0  0  0  0  0  0  0  0  0  0  0
    5.3248   -0.4216    0.5425 H   0  0  0  0  0  0  0  0  0  0  0  0
    5.9024   -1.6811   -1.1613 C   0  0  0  0  0  0  0  0  0  0  0  0
    6.9600   -1.3793   -1.1383 H   0  0  0  0  0  0  0  0  0  0  0  0
    5.4761   -2.6241   -2.1302 C   0  0  0  0  0  0  0  0  0  0  0  0
    6.2103   -3.0313   -2.8411 H   0  0  0  0  0  0  0  0  0  0  0  0
    4.1463   -3.0599   -2.1995 C   0  0  0  0  0  0  0  0  0  0  0  0
    3.8258   -3.8019   -2.9447 H   0  0  0  0  0  0  0  0  0  0  0  0
    3.2521   -2.5090   -1.2673 C   0  0  0  0  0  0  0  0  0  0  0  0
    1.0404   -3.6017   -1.8090 C   0  0  0  0  0  0  0  0  0  0  0  0
    1.2797   -3.5058   -2.8861 H   0  0  0  0  0  0  0  0  0  0  0  0
   -0.0221   -3.3306   -1.6641 H   0  0  0  0  0  0  0  0  0  0  0  0
    1.1986   -4.6570   -1.5039 H   0  0  0  0  0  0  0  0  0  0  0  0
    1.5331   -1.9091    0.0171 C   0  0  1  0  0  3  0  0  0  0  0  0
    0.1749   -1.7964    0.6396 C   0  0  0  0  0  0  0  0  0  0  0  0
    0.3595   -1.5982    1.7201 H   0  0  0  0  0  0  0  0  0  0  0  0
   -0.3805   -2.7474    0.5367 H   0  0  0  0  0  0  0  0  0  0  0  0
   -0.4953    0.6702    0.4982 C   0  0  0  0  0  0  0  0  0  0  0  0
   -1.4440    1.2093    0.2947 H   0  0  0  0  0  0  0  0  0  0  0  0
   -0.3042    0.6952    1.5959 H   0  0  0  0  0  0  0  0  0  0  0  0
    0.6515    1.4135   -0.1158 C   0  0  1  0  0  3  0  0  0  0  0  0
   -0.6093    2.6579   -1.9227 C   0  0  0  0  0  0  0  0  0  0  0  0
   -1.2729    1.7788   -2.0139 H   0  0  0  0  0  0  0  0  0  0  0  0
   -0.3042    2.9788   -2.9361 H   0  0  0  0  0  0  0  0  0  0  0  0
   -1.1655    3.4827   -1.4322 H   0  0  0  0  0  0  0  0  0  0  0  0
    1.8483    2.8470   -1.3305 C   0  0  0  0  0  0  0  0  0  0  0  0
    2.3591    3.8030   -2.2242 C   0  0  0  0  0  0  0  0  0  0  0  0
    1.7280    4.2841   -2.9849 H   0  0  0  0  0  0  0  0  0  0  0  0
    3.7151    4.1284   -2.0936 C   0  0  0  0  0  0  0  0  0  0  0  0
    4.1533    4.8751   -2.7725 H   0  0  0  0  0  0  0  0  0  0  0  0
    4.5338    3.5328   -1.1009 C   0  0  0  0  0  0  0  0  0  0  0  0
    5.5891    3.8343   -1.0264 H   0  0  0  0  0  0  0  0  0  0  0  0
    4.0251    2.5835   -0.2098 C   0  0  0  0  0  0  0  0  0  0  0  0
    4.6309    2.1305    0.5870 H   0  0  0  0  0  0  0  0  0  0  0  0
    2.6698    2.2362   -0.3403 C   0  0  0  0  0  0  0  0  0  0  0  0
   -3.4159   -0.8675    0.4813 C   0  0  0  0  0  0  0  0  0  0  0  0
   -3.5969   -1.8915    0.8599 H   0  0  0  0  0  0  0  0  0  0  0  0
   -2.9811   -0.2496    1.2908 H   0  0  0  0  0  0  0  0  0  0  0  0
   -4.6648   -0.2247   -0.0791 C   0  0  1  0  0  0  0  0  0  0  0  0
   -4.5530    1.2977   -0.2565 C   0  0  0  0  0  0  0  0  0  0  0  0
   -5.9881    1.8082   -0.4221 C   0  0  0  0  0  0  0  0  0  0  0  0
   -6.1724    2.6096    0.3209 H   0  0  0  0  0  0  0  0  0  0  0  0
   -6.1315    2.2636   -1.4237 H   0  0  0  0  0  0  0  0  0  0  0  0
   -6.8190    0.5288   -0.1952 C   0  0  1  0  0  0  0  0  0  0  0  0
   -7.8601    0.7176    0.1322 H   0  0  0  0  0  0  0  0  0  0  0  0
   -6.6925   -0.3256   -1.4732 C   0  0  0  0  0  0  0  0  0  0  0  0
   -6.9286    0.2635   -2.3809 H   0  0  0  0  0  0  0  0  0  0  0  0
   -7.3898   -1.1851   -1.4582 H   0  0  0  0  0  0  0  0  0  0  0  0
   -5.2084   -0.7844   -1.4350 C   0  0  0  0  0  0  0  0  0  0  0  0
   -4.6057   -0.4090   -2.2813 H   0  0  0  0  0  0  0  0  0  0  0  0
   -5.1014   -1.8878   -1.4415 H   0  0  0  0  0  0  0  0  0  0  0  0
   -5.9534   -0.2706    0.8389 C   0  0  0  0  0  0  0  0  0  0  0  0
   -6.4661   -1.6890    1.1148 C   0  0  0  0  0  0  0  0  0  0  0  0
   -7.4682   -1.6399    1.5884 H   0  0  0  0  0  0  0  0  0  0  0  0
   -5.7980   -2.2183    1.8244 H   0  0  0  0  0  0  0  0  0  0  0  0
   -6.5542   -2.3162    0.2088 H   0  0  0  0  0  0  0  0  0  0  0  0
   -5.7690    0.4411    2.1887 C   0  0  0  0  0  0  0  0  0  0  0  0
   -6.7446    0.5380    2.7067 H   0  0  0  0  0  0  0  0  0  0  0  0
   -5.3312    1.4548    2.1061 H   0  0  0  0  0  0  0  0  0  0  0  0
   -5.1039   -0.1467    2.8535 H   0  0  0  0  0  0  0  0  0  0  0  0
  1  7  1  0  0  0  0
  1 46  1  0  0  0  0
  2  1  2  0  0  0  0
  3  1  2  0  0  0  0
  6 24  1  0  0  0  0
  7 28  1  0  0  0  0
  7 25  1  0  0  0  0
  8 31  1  0  0  0  0
 10 11  1  0  0  0  0
 10  5  1  0  0  0  0
 11 12  1  0  0  0  0
 13 14  1  0  0  0  0
 13 11  2  0  0  0  0
 15 13  1  0  0  0  0
 16 15  1  0  0  0  0
 17 15  2  0  0  0  0
 17 19  1  0  0  0  0
 18 17  1  0  0  0  0
 19  6  1  0  0  0  0
 19 10  2  0  0  0  0
 20 22  1  0  0  0  0
 20 23  1  0  0  0  0
 20  6  1  0  0  0  0
 21 20  1  0  0  0  0
 24  5  1  0  0  0  0
 24 25  1  1  0  0  0
 25 26  1  0  0  0  0
 27 25  1  0  0  0  0
 28 30  1  0  0  0  0
 29 28  1  0  0  0  0
 31  9  1  0  0  0  0
 31 28  1  1  0  0  0
 32 35  1  0  0  0  0
 32  8  1  0  0  0  0
 33 32  1  0  0  0  0
 34 32  1  0  0  0  0
 36  8  1  0  0  0  0
 36 45  1  0  0  0  0
 37 39  1  0  0  0  0
 37 36  2  0  0  0  0
 38 37  1  0  0  0  0
 39 41  2  0  0  0  0
 40 39  1  0  0  0  0
 41 42  1  0  0  0  0
 41 43  1  0  0  0  0
 43 44  1  0  0  0  0
 45 43  2  0  0  0  0
 45  9  1  0  0  0  0
 46 47  1  0  0  0  0
 46 48  1  0  0  0  0
 49 46  1  1  0  0  0
 49 62  1  0  0  0  0
 50  4  2  0  0  0  0
 50 49  1  0  0  0  0
 51 50  1  0  0  0  0
 51 54  1  0  0  0  0
 51 52  1  0  0  0  0
 53 51  1  0  0  0  0
 54 55  1  1  0  0  0
 54 62  1  0  0  0  0
 56 58  1  0  0  0  0
 56 59  1  0  0  0  0
 56 54  1  0  0  0  0
 57 56  1  0  0  0  0
 59 49  1  0  0  0  0
 60 59  1  0  0  0  0
 61 59  1  0  0  0  0
 62 63  1  0  0  0  0
 62 67  1  0  0  0  0
 63 64  1  0  0  0  0
 63 65  1  0  0  0  0
 66 63  1  0  0  0  0
 67 68  1  0  0  0  0
 67 70  1  0  0  0  0
 69 67  1  0  0  0  0
M  END
