3,4
 OpenBabel05122313053D

 55 59  0  0  0  0  0  0  0  0999 V2000
    3.5332    2.9823   -0.7000 S   0  0  0  0  0  0  0  0  0  0  0  0
    7.6417   -1.7222    0.3739 Cl  0  0  0  0  0  0  0  0  0  0  0  0
    0.1523    0.8974    0.3170 N   0  0  0  0  0  2  0  0  0  0  0  0
   -1.7752   -0.7161    0.0206 N   0  0  0  0  0  2  0  0  0  0  0  0
   -1.5631    2.8574    0.2687 C   0  0  0  0  0  0  0  0  0  0  0  0
   -1.0505    4.1463    0.4069 C   0  0  0  0  0  0  0  0  0  0  0  0
    0.0271    4.3341    0.5183 H   0  0  0  0  0  0  0  0  0  0  0  0
   -1.9569    5.2461    0.4013 C   0  0  0  0  0  0  0  0  0  0  0  0
   -1.5488    6.2620    0.5126 H   0  0  0  0  0  0  0  0  0  0  0  0
   -3.3347    5.0807    0.2586 C   0  0  0  0  0  0  0  0  0  0  0  0
   -3.9977    5.9597    0.2581 H   0  0  0  0  0  0  0  0  0  0  0  0
   -3.8955    3.7741    0.1104 C   0  0  0  0  0  0  0  0  0  0  0  0
   -5.2770    3.4348   -0.0460 C   0  0  0  0  0  0  0  0  0  0  0  0
   -6.0345    4.2332   -0.0614 H   0  0  0  0  0  0  0  0  0  0  0  0
   -5.6625    2.1003   -0.1778 C   0  0  0  0  0  0  0  0  0  0  0  0
   -6.7309    1.8639   -0.2966 H   0  0  0  0  0  0  0  0  0  0  0  0
   -4.7284    1.0239   -0.1653 C   0  0  0  0  0  0  0  0  0  0  0  0
   -5.0752   -0.0140   -0.2723 H   0  0  0  0  0  0  0  0  0  0  0  0
   -3.3742    1.3219   -0.0151 C   0  0  0  0  0  0  0  0  0  0  0  0
   -2.9805    2.6973    0.1209 C   0  0  0  0  0  0  0  0  0  0  0  0
   -1.0203    1.4900    0.2232 C   0  0  0  0  0  0  0  0  0  0  0  0
   -2.1283    0.5703    0.0518 C   0  0  0  0  0  0  0  0  0  0  0  0
    1.3892    1.6361    0.4951 C   0  0  0  0  0  0  0  0  0  0  0  0
    2.1340    0.9380    0.9245 H   0  0  0  0  0  0  0  0  0  0  0  0
    1.2514    2.4563    1.2318 H   0  0  0  0  0  0  0  0  0  0  0  0
    1.8979    2.2001   -0.8427 C   0  0  0  0  0  0  0  0  0  0  0  0
    1.2351    3.0092   -1.2116 H   0  0  0  0  0  0  0  0  0  0  0  0
    1.8947    1.4043   -1.6145 H   0  0  0  0  0  0  0  0  0  0  0  0
    4.6138    1.6012   -0.4023 C   0  0  0  0  0  0  0  0  0  0  0  0
    4.2777    0.2554   -0.6617 C   0  0  0  0  0  0  0  0  0  0  0  0
    3.2911   -0.0294   -1.0569 H   0  0  0  0  0  0  0  0  0  0  0  0
    5.2078   -0.7645   -0.4166 C   0  0  0  0  0  0  0  0  0  0  0  0
    4.9367   -1.8116   -0.6118 H   0  0  0  0  0  0  0  0  0  0  0  0
    6.4840   -0.4487    0.0723 C   0  0  0  0  0  0  0  0  0  0  0  0
    6.8360    0.8877    0.3263 C   0  0  0  0  0  0  0  0  0  0  0  0
    7.8366    1.1254    0.7139 H   0  0  0  0  0  0  0  0  0  0  0  0
    5.9007    1.9027    0.0974 C   0  0  0  0  0  0  0  0  0  0  0  0
    6.1706    2.9477    0.3147 H   0  0  0  0  0  0  0  0  0  0  0  0
   -2.7583   -1.7396   -0.1205 C   0  0  0  0  0  0  0  0  0  0  0  0
   -3.3226   -2.3094    1.0493 C   0  0  0  0  0  0  0  0  0  0  0  0
   -4.2355   -3.3686    0.8842 C   0  0  0  0  0  0  0  0  0  0  0  0
   -4.6832   -3.8263    1.7802 H   0  0  0  0  0  0  0  0  0  0  0  0
   -4.5806   -3.8348   -0.3928 C   0  0  0  0  0  0  0  0  0  0  0  0
   -5.2978   -4.6629   -0.5002 H   0  0  0  0  0  0  0  0  0  0  0  0
   -4.0257   -3.2369   -1.5337 C   0  0  0  0  0  0  0  0  0  0  0  0
   -4.3079   -3.5917   -2.5372 H   0  0  0  0  0  0  0  0  0  0  0  0
   -3.1074   -2.1754   -1.4238 C   0  0  0  0  0  0  0  0  0  0  0  0
   -2.9508   -1.7915    2.4096 C   0  0  0  0  0  0  0  0  0  0  0  0
   -3.4722   -2.3545    3.2064 H   0  0  0  0  0  0  0  0  0  0  0  0
   -3.2164   -0.7187    2.5149 H   0  0  0  0  0  0  0  0  0  0  0  0
   -1.8537   -1.8476    2.5803 H   0  0  0  0  0  0  0  0  0  0  0  0
   -2.5120   -1.5166   -2.6359 C   0  0  0  0  0  0  0  0  0  0  0  0
   -2.8669   -1.9982   -3.5664 H   0  0  0  0  0  0  0  0  0  0  0  0
   -1.4017   -1.5490   -2.6091 H   0  0  0  0  0  0  0  0  0  0  0  0
   -2.7836   -0.4409   -2.6796 H   0  0  0  0  0  0  0  0  0  0  0  0
  1 29  1  0  0  0  0
  3 23  1  0  0  0  0
  4 22  1  0  0  0  0
  5  6  1  0  0  0  0
  6  7  1  0  0  0  0
  8  6  2  0  0  0  0
  8  9  1  0  0  0  0
 10  8  1  0  0  0  0
 11 10  1  0  0  0  0
 12 20  1  0  0  0  0
 12 10  2  0  0  0  0
 13 12  1  0  0  0  0
 14 13  1  0  0  0  0
 15 17  1  0  0  0  0
 15 13  2  0  0  0  0
 16 15  1  0  0  0  0
 17 19  2  0  0  0  0
 18 17  1  0  0  0  0
 19 22  1  0  0  0  0
 19 20  1  0  0  0  0
 20  5  2  0  0  0  0
 21  5  1  0  0  0  0
 21  3  1  0  0  0  0
 22 21  2  0  0  0  0
 23 24  1  0  0  0  0
 23 25  1  0  0  0  0
 26  1  1  0  0  0  0
 26 23  1  0  0  0  0
 27 26  1  0  0  0  0
 28 26  1  0  0  0  0
 29 37  1  0  0  0  0
 30 32  1  0  0  0  0
 30 29  2  0  0  0  0
 31 30  1  0  0  0  0
 32 34  2  0  0  0  0
 33 32  1  0  0  0  0
 34 35  1  0  0  0  0
 34  2  1  0  0  0  0
 35 36  1  0  0  0  0
 37 38  1  0  0  0  0
 37 35  2  0  0  0  0
 39  4  1  0  0  0  0
 39 40  1  0  0  0  0
 40 48  1  0  0  0  0
 41 40  2  0  0  0  0
 41 42  1  0  0  0  0
 43 41  1  0  0  0  0
 44 43  1  0  0  0  0
 45 47  1  0  0  0  0
 45 43  2  0  0  0  0
 46 45  1  0  0  0  0
 47 39  2  0  0  0  0
 48 50  1  0  0  0  0
 48 51  1  0  0  0  0
 48 49  1  0  0  0  0
 52 54  1  0  0  0  0
 52 47  1  0  0  0  0
 53 52  1  0  0  0  0
 55 52  1  0  0  0  0
M  END
