1,4
 OpenBabel05122313053D

 80 81  0  0  0  0  0  0  0  0999 V2000
   -1.5606   -0.1819    0.2155 N   0  0  0  0  0  2  0  0  0  0  0  0
   -1.4969   -0.3354    2.7536 N   0  0  0  0  0  0  0  0  0  0  0  0
    1.4444    1.1602    2.3574 N   0  0  0  0  0  0  0  0  0  0  0  0
    1.5698   -0.1743    0.2027 N   0  0  0  0  0  2  0  0  0  0  0  0
   -0.8764   -0.1230    1.4908 B   0  0  0  0  0  0  0  0  0  0  0  0
    0.8701    0.2929    1.3732 B   0  0  0  0  0  0  0  0  0  0  0  0
   -2.9375   -0.4018    2.9493 C   0  0  0  0  0  0  0  0  0  0  0  0
   -0.7567   -0.6743    3.9574 C   0  0  0  0  0  0  0  0  0  0  0  0
    0.6770    2.0137    3.2487 C   0  0  0  0  0  0  0  0  0  0  0  0
    2.8786    1.3352    2.5414 C   0  0  0  0  0  0  0  0  0  0  0  0
    2.8488    0.0658   -0.3457 C   0  0  0  0  0  0  0  0  0  0  0  0
    3.8613   -0.9252   -0.1970 C   0  0  0  0  0  0  0  0  0  0  0  0
    5.1419   -0.6554   -0.7116 C   0  0  0  0  0  0  0  0  0  0  0  0
    5.4231    0.5518   -1.3622 C   0  0  0  0  0  0  0  0  0  0  0  0
    4.4096    1.5047   -1.5248 C   0  0  0  0  0  0  0  0  0  0  0  0
    3.1086    1.2868   -1.0373 C   0  0  0  0  0  0  0  0  0  0  0  0
   -2.8600    0.1524   -0.2138 C   0  0  0  0  0  0  0  0  0  0  0  0
   -3.7927   -0.8449   -0.6128 C   0  0  0  0  0  0  0  0  0  0  0  0
   -5.0659   -0.4339   -1.0473 C   0  0  0  0  0  0  0  0  0  0  0  0
   -5.4223    0.9192   -1.0865 C   0  0  0  0  0  0  0  0  0  0  0  0
   -4.4947    1.8914   -0.6905 C   0  0  0  0  0  0  0  0  0  0  0  0
   -3.2079    1.5365   -0.2514 C   0  0  0  0  0  0  0  0  0  0  0  0
    4.4231   -2.3762    1.8010 C   0  0  0  0  0  0  0  0  0  0  0  0
    3.5844   -2.2409    0.5187 C   0  0  0  0  0  0  0  0  0  0  0  0
    3.7870   -3.4421   -0.4194 C   0  0  0  0  0  0  0  0  0  0  0  0
    2.2471    3.5740   -0.3561 C   0  0  0  0  0  0  0  0  0  0  0  0
    2.0331    2.3450   -1.2564 C   0  0  0  0  0  0  0  0  0  0  0  0
    1.9246    2.7547   -2.7338 C   0  0  0  0  0  0  0  0  0  0  0  0
   -3.2014   -2.8565   -2.0052 C   0  0  0  0  0  0  0  0  0  0  0  0
   -3.4290   -2.3207   -0.5803 C   0  0  0  0  0  0  0  0  0  0  0  0
   -4.4574   -3.1663    0.1859 C   0  0  0  0  0  0  0  0  0  0  0  0
   -1.7097    3.3326   -1.1646 C   0  0  0  0  0  0  0  0  0  0  0  0
   -2.1980    2.6184    0.1082 C   0  0  0  0  0  0  0  0  0  0  0  0
   -2.7284    3.6048    1.1585 C   0  0  0  0  0  0  0  0  0  0  0  0
   -3.4804   -0.1167    2.0323 H   0  0  0  0  0  0  0  0  0  0  0  0
   -3.2539    0.2822    3.7690 H   0  0  0  0  0  0  0  0  0  0  0  0
   -3.2535   -1.4304    3.2376 H   0  0  0  0  0  0  0  0  0  0  0  0
    0.3295   -0.6741    3.7582 H   0  0  0  0  0  0  0  0  0  0  0  0
   -1.0452   -1.6904    4.3091 H   0  0  0  0  0  0  0  0  0  0  0  0
   -0.9703    0.0350    4.7889 H   0  0  0  0  0  0  0  0  0  0  0  0
   -0.4067    1.8852    3.0804 H   0  0  0  0  0  0  0  0  0  0  0  0
    0.9279    3.0833    3.0628 H   0  0  0  0  0  0  0  0  0  0  0  0
    0.9027    1.8064    4.3195 H   0  0  0  0  0  0  0  0  0  0  0  0
    3.4561    0.7085    1.8420 H   0  0  0  0  0  0  0  0  0  0  0  0
    3.1667    1.0578    3.5813 H   0  0  0  0  0  0  0  0  0  0  0  0
    3.1882    2.3936    2.3865 H   0  0  0  0  0  0  0  0  0  0  0  0
    5.9352   -1.4105   -0.5976 H   0  0  0  0  0  0  0  0  0  0  0  0
    6.4327    0.7474   -1.7541 H   0  0  0  0  0  0  0  0  0  0  0  0
    4.6312    2.4451   -2.0524 H   0  0  0  0  0  0  0  0  0  0  0  0
   -5.7955   -1.1971   -1.3589 H   0  0  0  0  0  0  0  0  0  0  0  0
   -6.4248    1.2182   -1.4283 H   0  0  0  0  0  0  0  0  0  0  0  0
   -4.7731    2.9561   -0.7302 H   0  0  0  0  0  0  0  0  0  0  0  0
    4.2438   -1.5311    2.4962 H   0  0  0  0  0  0  0  0  0  0  0  0
    5.5102   -2.4004    1.5776 H   0  0  0  0  0  0  0  0  0  0  0  0
    4.1707   -3.3155    2.3347 H   0  0  0  0  0  0  0  0  0  0  0  0
    2.5161   -2.2374    0.8115 H   0  0  0  0  0  0  0  0  0  0  0  0
    3.1386   -3.3602   -1.3135 H   0  0  0  0  0  0  0  0  0  0  0  0
    3.5268   -4.3872    0.0992 H   0  0  0  0  0  0  0  0  0  0  0  0
    4.8401   -3.5219   -0.7612 H   0  0  0  0  0  0  0  0  0  0  0  0
    2.2124    3.3010    0.7158 H   0  0  0  0  0  0  0  0  0  0  0  0
    1.4592    4.3334   -0.5398 H   0  0  0  0  0  0  0  0  0  0  0  0
    3.2287    4.0521   -0.5555 H   0  0  0  0  0  0  0  0  0  0  0  0
    1.0607    1.8940   -0.9736 H   0  0  0  0  0  0  0  0  0  0  0  0
    1.7665    1.8708   -3.3811 H   0  0  0  0  0  0  0  0  0  0  0  0
    2.8358    3.2835   -3.0820 H   0  0  0  0  0  0  0  0  0  0  0  0
    1.0668    3.4423   -2.8788 H   0  0  0  0  0  0  0  0  0  0  0  0
   -2.4428   -2.2541   -2.5436 H   0  0  0  0  0  0  0  0  0  0  0  0
   -4.1403   -2.8239   -2.5970 H   0  0  0  0  0  0  0  0  0  0  0  0
   -2.8449   -3.9060   -1.9772 H   0  0  0  0  0  0  0  0  0  0  0  0
   -2.4656   -2.4098   -0.0402 H   0  0  0  0  0  0  0  0  0  0  0  0
   -4.6111   -2.7824    1.2150 H   0  0  0  0  0  0  0  0  0  0  0  0
   -4.1117   -4.2176    0.2603 H   0  0  0  0  0  0  0  0  0  0  0  0
   -5.4455   -3.1793   -0.3195 H   0  0  0  0  0  0  0  0  0  0  0  0
   -1.2965    2.6043   -1.8904 H   0  0  0  0  0  0  0  0  0  0  0  0
   -0.9199    4.0743   -0.9252 H   0  0  0  0  0  0  0  0  0  0  0  0
   -2.5423    3.8707   -1.6635 H   0  0  0  0  0  0  0  0  0  0  0  0
   -1.3151    2.1152    0.5531 H   0  0  0  0  0  0  0  0  0  0  0  0
   -1.9392    4.3307    1.4439 H   0  0  0  0  0  0  0  0  0  0  0  0
   -3.0573    3.0762    2.0764 H   0  0  0  0  0  0  0  0  0  0  0  0
   -3.5925    4.1893    0.7802 H   0  0  0  0  0  0  0  0  0  0  0  0
  1  5  1  0  0  0  0
  2  7  1  0  0  0  0
  2  8  1  0  0  0  0
  3 10  1  0  0  0  0
  3  9  1  0  0  0  0
  4  6  1  0  0  0  0
  5  2  1  0  0  0  0
  6  5  1  0  0  0  0
  6  3  1  0  0  0  0
  7 37  1  0  0  0  0
  7 36  1  0  0  0  0
  8 39  1  0  0  0  0
  8 40  1  0  0  0  0
  9 43  1  0  0  0  0
 10 45  1  0  0  0  0
 11 12  1  0  0  0  0
 11  4  1  0  0  0  0
 12 24  1  0  0  0  0
 13 47  1  0  0  0  0
 13 12  2  0  0  0  0
 14 13  1  0  0  0  0
 15 14  2  0  0  0  0
 15 16  1  0  0  0  0
 16 11  2  0  0  0  0
 17  1  1  0  0  0  0
 18 30  1  0  0  0  0
 18 17  2  0  0  0  0
 19 18  1  0  0  0  0
 20 19  2  0  0  0  0
 20 21  1  0  0  0  0
 21 22  2  0  0  0  0
 22 17  1  0  0  0  0
 22 33  1  0  0  0  0
 23 55  1  0  0  0  0
 23 53  1  0  0  0  0
 24 56  1  0  0  0  0
 24 23  1  0  0  0  0
 25 58  1  0  0  0  0
 25 24  1  0  0  0  0
 26 60  1  0  0  0  0
 27 16  1  0  0  0  0
 27 63  1  0  0  0  0
 27 26  1  0  0  0  0
 28 27  1  0  0  0  0
 29 69  1  0  0  0  0
 29 30  1  0  0  0  0
 30 70  1  0  0  0  0
 30 31  1  0  0  0  0
 31 72  1  0  0  0  0
 31 71  1  0  0  0  0
 32 75  1  0  0  0  0
 32 33  1  0  0  0  0
 33 77  1  0  0  0  0
 33 34  1  0  0  0  0
 34 78  1  0  0  0  0
 34 79  1  0  0  0  0
 35  7  1  0  0  0  0
 38  8  1  0  0  0  0
 41  9  1  0  0  0  0
 42  9  1  0  0  0  0
 44 10  1  0  0  0  0
 46 10  1  0  0  0  0
 48 14  1  0  0  0  0
 49 15  1  0  0  0  0
 50 19  1  0  0  0  0
 51 20  1  0  0  0  0
 52 21  1  0  0  0  0
 54 23  1  0  0  0  0
 57 25  1  0  0  0  0
 59 25  1  0  0  0  0
 61 26  1  0  0  0  0
 62 26  1  0  0  0  0
 64 28  1  0  0  0  0
 65 28  1  0  0  0  0
 66 28  1  0  0  0  0
 67 29  1  0  0  0  0
 68 29  1  0  0  0  0
 73 31  1  0  0  0  0
 74 32  1  0  0  0  0
 76 32  1  0  0  0  0
 80 34  1  0  0  0  0
M  END
