7,8
 OpenBabel05122313053D

 44 46  0  0  0  0  0  0  0  0999 V2000
   -5.7784    5.0288   -0.0978 O   0  0  0  0  0  0  0  0  0  0  0  0
   -6.8834    3.5087   -1.2187 O   0  0  0  0  0  0  0  0  0  0  0  0
    6.3123   -2.8036   -0.6889 O   0  0  0  0  0  0  0  0  0  0  0  0
    6.0939   -1.6829   -2.5543 O   0  0  0  0  0  0  0  0  0  0  0  0
    5.9976    3.3757    1.9528 O   0  0  0  0  0  0  0  0  0  0  0  0
    5.8738    4.7996    0.2960 O   0  0  0  0  0  0  0  0  0  0  0  0
   -1.5189    0.3435   -0.1798 N   0  0  0  0  0  2  0  0  0  0  0  0
    0.4413   -0.5880    0.1079 N   0  0  0  0  0  2  0  0  0  0  0  0
    0.3761    1.7787   -0.4898 N   0  0  0  0  0  0  0  0  0  0  0  0
   -0.2088    2.3945   -1.0612 H   0  0  0  0  0  0  0  0  0  0  0  0
   -5.8878    3.9155   -0.6163 N   0  0  0  0  0  0  0  0  0  0  0  0
    5.6787   -2.0911   -1.4693 N   0  0  0  0  0  0  0  0  0  0  0  0
    5.4310    3.8753    0.9795 N   0  0  0  0  0  0  0  0  0  0  0  0
   -0.1964    0.5603   -0.1786 C   0  0  0  0  0  3  0  0  0  0  0  0
   -2.5547    1.2539   -0.2914 C   0  0  0  0  0  0  0  0  0  0  0  0
   -3.7226    0.8650   -0.9986 C   0  0  0  0  0  0  0  0  0  0  0  0
   -3.7250   -0.1228   -1.4810 H   0  0  0  0  0  0  0  0  0  0  0  0
   -4.8093    1.7306   -1.1069 C   0  0  0  0  0  0  0  0  0  0  0  0
   -5.7190    1.4581   -1.6585 H   0  0  0  0  0  0  0  0  0  0  0  0
   -4.7379    2.9984   -0.5070 C   0  0  0  0  0  0  0  0  0  0  0  0
   -3.5989    3.4102    0.2002 C   0  0  0  0  0  0  0  0  0  0  0  0
   -3.5980    4.4043    0.6671 H   0  0  0  0  0  0  0  0  0  0  0  0
   -2.5114    2.5419    0.3121 C   0  0  0  0  0  0  0  0  0  0  0  0
   -1.6333    2.8404    0.9021 H   0  0  0  0  0  0  0  0  0  0  0  0
    1.7293   -0.9366   -0.3126 C   0  0  0  0  0  0  0  0  0  0  0  0
    2.2517   -0.5377   -1.5675 C   0  0  0  0  0  0  0  0  0  0  0  0
    1.6199    0.0440   -2.2506 H   0  0  0  0  0  0  0  0  0  0  0  0
    3.5435   -0.9103   -1.9433 C   0  0  0  0  0  0  0  0  0  0  0  0
    3.9748   -0.6174   -2.9097 H   0  0  0  0  0  0  0  0  0  0  0  0
    4.3100   -1.6956   -1.0709 C   0  0  0  0  0  0  0  0  0  0  0  0
    3.8110   -2.1243    0.1674 C   0  0  0  0  0  0  0  0  0  0  0  0
    4.4512   -2.7392    0.8134 H   0  0  0  0  0  0  0  0  0  0  0  0
    2.5211   -1.7434    0.5391 C   0  0  0  0  0  0  0  0  0  0  0  0
    2.1089   -2.0462    1.5125 H   0  0  0  0  0  0  0  0  0  0  0  0
    1.6261    2.2719   -0.1077 C   0  0  0  0  0  0  0  0  0  0  0  0
    2.1952    3.3298   -0.8556 C   0  0  0  0  0  0  0  0  0  0  0  0
    1.6583    3.7272   -1.7307 H   0  0  0  0  0  0  0  0  0  0  0  0
    3.4356    3.8592   -0.5000 C   0  0  0  0  0  0  0  0  0  0  0  0
    3.9027    4.6763   -1.0654 H   0  0  0  0  0  0  0  0  0  0  0  0
    4.1137    3.3238    0.6041 C   0  0  0  0  0  0  0  0  0  0  0  0
    3.5640    2.2826    1.3652 C   0  0  0  0  0  0  0  0  0  0  0  0
    4.1262    1.9052    2.2294 H   0  0  0  0  0  0  0  0  0  0  0  0
    2.3192    1.7598    1.0156 C   0  0  0  0  0  0  0  0  0  0  0  0
    1.8713    0.9578    1.6160 H   0  0  0  0  0  0  0  0  0  0  0  0
  2 11  2  0  0  0  0
  4 12  2  0  0  0  0
  6 13  2  0  0  0  0
  7 14  1  0  0  0  0
  9 14  1  0  0  0  0
  9 35  1  0  0  0  0
 10  9  1  0  0  0  0
 11 20  1  0  0  0  0
 11  1  2  0  0  0  0
 12 30  1  0  0  0  0
 12  3  2  0  0  0  0
 13  5  2  0  0  0  0
 14  8  1  0  0  0  0
 15  7  1  0  0  0  0
 15 23  1  0  0  0  0
 16 15  2  0  0  0  0
 17 16  1  0  0  0  0
 18 16  1  0  0  0  0
 18 20  2  0  0  0  0
 19 18  1  0  0  0  0
 20 21  1  0  0  0  0
 21 23  2  0  0  0  0
 21 22  1  0  0  0  0
 23 24  1  0  0  0  0
 25  8  1  0  0  0  0
 25 33  1  0  0  0  0
 26 25  2  0  0  0  0
 27 26  1  0  0  0  0
 28 26  1  0  0  0  0
 28 30  2  0  0  0  0
 29 28  1  0  0  0  0
 30 31  1  0  0  0  0
 31 33  2  0  0  0  0
 31 32  1  0  0  0  0
 33 34  1  0  0  0  0
 35 43  1  0  0  0  0
 36 38  1  0  0  0  0
 36 35  2  0  0  0  0
 37 36  1  0  0  0  0
 38 40  2  0  0  0  0
 39 38  1  0  0  0  0
 40 13  1  0  0  0  0
 40 41  1  0  0  0  0
 41 42  1  0  0  0  0
 43 41  2  0  0  0  0
 43 44  1  0  0  0  0
M  END
