4,5
 OpenBabel05122313053D

 38 40  0  0  0  0  0  0  0  0999 V2000
   -0.0016    3.4433    1.2432 Cl  0  0  0  0  0  0  0  0  0  0  0  0
   -2.2539   -0.1173    2.4330 Cl  0  0  0  0  0  0  0  0  0  0  0  0
   -3.9776    2.6668    0.6890 Cl  0  0  0  0  0  0  0  0  0  0  0  0
    0.7994    0.9425   -0.3593 N   0  0  0  0  0  2  0  0  0  0  0  0
   -0.3778   -0.8251    0.0837 N   0  0  0  0  0  2  0  0  0  0  0  0
   -1.5964    1.2282   -0.3960 N   0  0  0  0  0  0  0  0  0  0  0  0
   -1.5995    2.1689    0.0182 H   0  0  0  0  0  0  0  0  0  0  0  0
   -0.4572    0.4842   -0.1976 C   0  0  0  0  0  3  0  0  0  0  0  0
    1.2343    2.1630   -0.8603 C   0  0  0  0  0  0  0  0  0  0  0  0
    0.9523    3.4060   -0.2341 C   0  0  0  0  0  0  0  0  0  0  0  0
    1.4555    4.6160   -0.7336 C   0  0  0  0  0  0  0  0  0  0  0  0
    1.2066    5.5513   -0.2126 H   0  0  0  0  0  0  0  0  0  0  0  0
    2.2777    4.6126   -1.8680 C   0  0  0  0  0  0  0  0  0  0  0  0
    2.6754    5.5620   -2.2555 H   0  0  0  0  0  0  0  0  0  0  0  0
    2.5900    3.3934   -2.4947 C   0  0  0  0  0  0  0  0  0  0  0  0
    3.2309    3.3807   -3.3891 H   0  0  0  0  0  0  0  0  0  0  0  0
    2.0764    2.1914   -1.9999 C   0  0  0  0  0  0  0  0  0  0  0  0
    2.2761    1.2272   -2.4918 H   0  0  0  0  0  0  0  0  0  0  0  0
   -1.3512   -1.7567    0.4148 C   0  0  0  0  0  0  0  0  0  0  0  0
   -2.2963   -1.5672    1.4575 C   0  0  0  0  0  0  0  0  0  0  0  0
   -3.2581   -2.5462    1.7482 C   0  0  0  0  0  0  0  0  0  0  0  0
   -3.9780   -2.3557    2.5566 H   0  0  0  0  0  0  0  0  0  0  0  0
   -3.2789   -3.7477    1.0274 C   0  0  0  0  0  0  0  0  0  0  0  0
   -4.0354   -4.5106    1.2636 H   0  0  0  0  0  0  0  0  0  0  0  0
   -2.3264   -3.9715    0.0181 C   0  0  0  0  0  0  0  0  0  0  0  0
   -2.3326   -4.9138   -0.5501 H   0  0  0  0  0  0  0  0  0  0  0  0
   -1.3781   -2.9898   -0.2814 C   0  0  0  0  0  0  0  0  0  0  0  0
   -0.6440   -3.1153   -1.0921 H   0  0  0  0  0  0  0  0  0  0  0  0
   -2.8192    0.7260   -0.8499 C   0  0  0  0  0  0  0  0  0  0  0  0
   -4.0345    1.3056   -0.4120 C   0  0  0  0  0  0  0  0  0  0  0  0
   -5.2718    0.8180   -0.8516 C   0  0  0  0  0  0  0  0  0  0  0  0
   -6.1918    1.2952   -0.4859 H   0  0  0  0  0  0  0  0  0  0  0  0
   -5.3160   -0.2697   -1.7353 C   0  0  0  0  0  0  0  0  0  0  0  0
   -6.2883   -0.6601   -2.0700 H   0  0  0  0  0  0  0  0  0  0  0  0
   -4.1184   -0.8406   -2.1964 C   0  0  0  0  0  0  0  0  0  0  0  0
   -4.1420   -1.6807   -2.9061 H   0  0  0  0  0  0  0  0  0  0  0  0
   -2.8826   -0.3412   -1.7733 C   0  0  0  0  0  0  0  0  0  0  0  0
   -1.9400   -0.7592   -2.1590 H   0  0  0  0  0  0  0  0  0  0  0  0
  4  8  1  0  0  0  0
  5 19  1  0  0  0  0
  6  8  1  0  0  0  0
  6  7  1  0  0  0  0
  8  5  1  0  0  0  0
  9  4  1  0  0  0  0
  9 10  1  0  0  0  0
 10  1  1  0  0  0  0
 11 10  2  0  0  0  0
 11 12  1  0  0  0  0
 13 11  1  0  0  0  0
 14 13  1  0  0  0  0
 15 17  1  0  0  0  0
 15 13  2  0  0  0  0
 16 15  1  0  0  0  0
 17  9  2  0  0  0  0
 18 17  1  0  0  0  0
 19 20  1  0  0  0  0
 20 21  2  0  0  0  0
 20  2  1  0  0  0  0
 21 22  1  0  0  0  0
 23 24  1  0  0  0  0
 23 21  1  0  0  0  0
 25 23  2  0  0  0  0
 26 25  1  0  0  0  0
 27 25  1  0  0  0  0
 27 19  2  0  0  0  0
 28 27  1  0  0  0  0
 29 30  1  0  0  0  0
 29  6  1  0  0  0  0
 30  3  1  0  0  0  0
 31 32  1  0  0  0  0
 31 30  2  0  0  0  0
 33 31  1  0  0  0  0
 34 33  1  0  0  0  0
 35 37  1  0  0  0  0
 35 33  2  0  0  0  0
 36 35  1  0  0  0  0
 37 29  2  0  0  0  0
 38 37  1  0  0  0  0
M  END
