4,5
 OpenBabel05122313053D

 58 61  0  0  1  0  0  0  0  0999 V2000
   -5.9096    1.7521   -0.9148 O   0  0  0  0  0  0  0  0  0  0  0  0
   -4.4684   -2.9224    1.7369 O   0  0  0  0  0  0  0  0  0  0  0  0
   -1.8460    0.6426   -0.6211 N   0  0  0  0  0  0  0  0  0  0  0  0
    2.2871   -2.0860   -0.7667 N   0  0  0  0  0  2  0  0  0  0  0  0
    3.1911    1.7187    0.4155 N   0  0  0  0  0  2  0  0  0  0  0  0
    1.0225    0.0970    0.2349 N   0  0  0  0  0  0  0  0  0  0  0  0
    0.5537    0.6381   -1.0555 C   0  0  0  0  0  0  0  0  0  0  0  0
   -0.7765    1.3655   -0.9918 C   0  0  0  0  0  0  0  0  0  0  0  0
   -0.8610    2.7412   -1.2806 C   0  0  0  0  0  0  0  0  0  0  0  0
   -2.1143    3.3598   -1.1839 C   0  0  0  0  0  0  0  0  0  0  0  0
   -3.2293    2.6047   -0.8070 C   0  0  0  0  0  0  0  0  0  0  0  0
   -3.0637    1.2256   -0.5241 C   0  0  0  0  0  0  0  0  0  0  0  0
   -4.1712    0.3395   -0.0636 C   0  0  0  0  0  0  0  0  0  0  0  0
   -5.5572    0.6111   -0.2486 C   0  0  0  0  0  0  0  0  0  0  0  0
   -6.5153   -0.3052    0.2376 C   0  0  0  0  0  0  0  0  0  0  0  0
   -6.1304   -1.4735    0.8983 C   0  0  0  0  0  0  0  0  0  0  0  0
   -4.7639   -1.7622    1.0808 C   0  0  0  0  0  0  0  0  0  0  0  0
   -3.8092   -0.8602    0.5914 C   0  0  0  0  0  0  0  0  0  0  0  0
   -7.2765    1.9964   -1.1824 C   0  0  0  0  0  0  0  0  0  0  0  0
   -3.1074   -3.2411    1.9374 C   0  0  0  0  0  0  0  0  0  0  0  0
    0.4810   -1.2156    0.5885 C   0  0  0  0  0  0  0  0  0  0  0  0
    1.0111   -2.2614   -0.3680 C   0  0  2  0  0  3  0  0  0  0  0  0
    0.2582   -3.3586   -0.8132 C   0  0  0  0  0  0  0  0  0  0  0  0
    0.8604   -4.2903   -1.6713 C   0  0  0  0  0  0  0  0  0  0  0  0
    2.1897   -4.0923   -2.0737 C   0  0  0  0  0  0  0  0  0  0  0  0
    2.8708   -2.9633   -1.5988 C   0  0  0  0  0  0  0  0  0  0  0  0
    1.0464    1.0765    1.3190 C   0  0  0  0  0  0  0  0  0  0  0  0
    2.0635    2.1532    1.0127 C   0  0  1  0  0  3  0  0  0  0  0  0
    1.8866    3.5077    1.3331 C   0  0  0  0  0  0  0  0  0  0  0  0
    2.9179    4.4115    1.0376 C   0  0  0  0  0  0  0  0  0  0  0  0
    4.0860    3.9415    0.4184 C   0  0  0  0  0  0  0  0  0  0  0  0
    4.1802    2.5762    0.1161 C   0  0  0  0  0  0  0  0  0  0  0  0
    0.4776   -0.2102   -1.7646 H   0  0  0  0  0  0  0  0  0  0  0  0
    1.3334    1.3187   -1.4541 H   0  0  0  0  0  0  0  0  0  0  0  0
    0.0390    3.3050   -1.5682 H   0  0  0  0  0  0  0  0  0  0  0  0
   -2.2245    4.4346   -1.3956 H   0  0  0  0  0  0  0  0  0  0  0  0
   -4.2189    3.0647   -0.7199 H   0  0  0  0  0  0  0  0  0  0  0  0
   -7.5859   -0.1071    0.1001 H   0  0  0  0  0  0  0  0  0  0  0  0
   -6.8796   -2.1803    1.2829 H   0  0  0  0  0  0  0  0  0  0  0  0
   -2.7338   -1.0456    0.6928 H   0  0  0  0  0  0  0  0  0  0  0  0
   -7.3167    2.9434   -1.7524 H   0  0  0  0  0  0  0  0  0  0  0  0
   -7.7296    1.1859   -1.7958 H   0  0  0  0  0  0  0  0  0  0  0  0
   -7.8715    2.1127   -0.2487 H   0  0  0  0  0  0  0  0  0  0  0  0
   -3.0839   -4.1950    2.4961 H   0  0  0  0  0  0  0  0  0  0  0  0
   -2.5672   -3.3763    0.9718 H   0  0  0  0  0  0  0  0  0  0  0  0
   -2.5744   -2.4616    2.5278 H   0  0  0  0  0  0  0  0  0  0  0  0
   -0.6291   -1.2371    0.6151 H   0  0  0  0  0  0  0  0  0  0  0  0
    0.8917   -1.4621    1.5947 H   0  0  0  0  0  0  0  0  0  0  0  0
   -0.7892   -3.4682   -0.4952 H   0  0  0  0  0  0  0  0  0  0  0  0
    0.2898   -5.1589   -2.0339 H   0  0  0  0  0  0  0  0  0  0  0  0
    2.6925   -4.7945   -2.7540 H   0  0  0  0  0  0  0  0  0  0  0  0
    3.9082   -2.7111   -1.8823 H   0  0  0  0  0  0  0  0  0  0  0  0
    1.4142    0.5354    2.2217 H   0  0  0  0  0  0  0  0  0  0  0  0
    0.0522    1.5280    1.5401 H   0  0  0  0  0  0  0  0  0  0  0  0
    0.9486    3.8412    1.8014 H   0  0  0  0  0  0  0  0  0  0  0  0
    2.8057    5.4791    1.2812 H   0  0  0  0  0  0  0  0  0  0  0  0
    4.9115    4.6213    0.1630 H   0  0  0  0  0  0  0  0  0  0  0  0
    5.0475    2.1200   -0.3936 H   0  0  0  0  0  0  0  0  0  0  0  0
  1 14  1  0  0  0  0
  2 20  1  0  0  0  0
  3 12  1  0  0  0  0
  4 22  1  0  0  0  0
  5 28  1  0  0  0  0
  6 21  1  0  0  0  0
  6 27  1  0  0  0  0
  7  8  1  0  0  0  0
  7  6  1  0  0  0  0
  8  3  2  0  0  0  0
  9 10  2  0  0  0  0
  9  8  1  0  0  0  0
 10 11  1  0  0  0  0
 11 37  1  0  0  0  0
 11 12  2  0  0  0  0
 12 13  1  0  0  0  0
 13 18  1  0  0  0  0
 14 13  2  0  0  0  0
 14 15  1  0  0  0  0
 15 16  2  0  0  0  0
 16 17  1  0  0  0  0
 16 39  1  0  0  0  0
 17  2  1  0  0  0  0
 18 40  1  0  0  0  0
 18 17  2  0  0  0  0
 19  1  1  0  0  0  0
 19 43  1  0  0  0  0
 20 44  1  0  0  0  0
 20 46  1  0  0  0  0
 21 47  1  0  0  0  0
 21 48  1  0  0  0  0
 22 21  1  1  0  0  0
 23 49  1  0  0  0  0
 23 22  1  0  0  0  0
 24 23  2  0  0  0  0
 25 24  1  0  0  0  0
 25 26  2  0  0  0  0
 26  4  1  0  0  0  0
 27 54  1  0  0  0  0
 27 53  1  0  0  0  0
 28 27  1  1  0  0  0
 28 29  1  0  0  0  0
 29 55  1  0  0  0  0
 30 56  1  0  0  0  0
 30 29  2  0  0  0  0
 31 30  1  0  0  0  0
 32  5  1  0  0  0  0
 32 31  2  0  0  0  0
 33  7  1  0  0  0  0
 34  7  1  0  0  0  0
 35  9  1  0  0  0  0
 36 10  1  0  0  0  0
 38 15  1  0  0  0  0
 41 19  1  0  0  0  0
 42 19  1  0  0  0  0
 45 20  1  0  0  0  0
 50 24  1  0  0  0  0
 51 25  1  0  0  0  0
 52 26  1  0  0  0  0
 57 31  1  0  0  0  0
 58 32  1  0  0  0  0
M  END
