2,4
 OpenBabel05122313053D

 26 27  0  0  1  0  0  0  0  0999 V2000
   -1.0265    2.9000   -0.6205 O   0  0  0  0  0  0  0  0  0  0  0  0
    2.1128    1.2697   -0.1658 N   0  0  0  0  0  2  0  0  0  0  0  0
   -5.1300    1.5259    0.8379 O   0  0  0  0  0  0  0  0  0  0  0  0
   -0.3748    0.6491   -0.6054 N   0  0  0  0  0  2  0  0  0  0  0  0
   -6.3524    0.1014   -0.2789 O   0  0  0  0  0  0  0  0  0  0  0  0
   -5.2734    0.6104    0.0274 N   0  0  0  0  0  0  0  0  0  0  0  0
   -1.6487    0.1373   -0.9069 C   0  0  0  0  0  0  0  0  0  0  0  0
   -1.7621   -0.9582   -1.7987 C   0  0  0  0  0  0  0  0  0  0  0  0
   -0.8411   -1.3267   -2.2762 H   0  0  0  0  0  0  0  0  0  0  0  0
   -3.0110   -1.5276   -2.0805 C   0  0  0  0  0  0  0  0  0  0  0  0
   -3.0758   -2.3734   -2.7816 H   0  0  0  0  0  0  0  0  0  0  0  0
   -4.1799   -1.0225   -1.4917 C   0  0  0  0  0  0  0  0  0  0  0  0
   -5.1753   -1.4402   -1.6883 H   0  0  0  0  0  0  0  0  0  0  0  0
   -4.0520    0.0696   -0.6236 C   0  0  0  0  0  0  0  0  0  0  0  0
   -2.8227    0.6664   -0.3248 C   0  0  0  0  0  0  0  0  0  0  0  0
   -2.7903    1.5321    0.3454 H   0  0  0  0  0  0  0  0  0  0  0  0
   -0.1812    2.0022   -0.5177 C   0  0  0  0  0  0  0  0  0  0  0  0
    1.2724    2.3212   -0.3303 C   0  0  2  0  0  3  0  0  0  0  0  0
    1.7400    3.6407   -0.3685 C   0  0  0  0  0  0  0  0  0  0  0  0
    0.9886    4.4327   -0.5008 H   0  0  0  0  0  0  0  0  0  0  0  0
    3.1130    3.8790   -0.2538 C   0  0  0  0  0  0  0  0  0  0  0  0
    3.5107    4.9044   -0.2825 H   0  0  0  0  0  0  0  0  0  0  0  0
    3.9789    2.7801   -0.1178 C   0  0  0  0  0  0  0  0  0  0  0  0
    5.0674    2.9133   -0.0442 H   0  0  0  0  0  0  0  0  0  0  0  0
    3.4435    1.4893   -0.0838 C   0  0  0  0  0  0  0  0  0  0  0  0
    4.0788    0.5967    0.0008 H   0  0  0  0  0  0  0  0  0  0  0  0
  1 17  2  0  0  0  0
  2 25  1  0  0  0  0
  4 17  1  0  0  0  0
  5  6  2  0  0  0  0
  6  3  2  0  0  0  0
  7  4  1  0  0  0  0
  7 15  1  0  0  0  0
  8  7  2  0  0  0  0
  9  8  1  0  0  0  0
 10  8  1  0  0  0  0
 10 12  2  0  0  0  0
 11 10  1  0  0  0  0
 12 14  1  0  0  0  0
 13 12  1  0  0  0  0
 14 15  2  0  0  0  0
 14  6  1  0  0  0  0
 15 16  1  0  0  0  0
 18 17  1  6  0  0  0
 18  2  1  0  0  0  0
 19 18  1  0  0  0  0
 19 21  2  0  0  0  0
 20 19  1  0  0  0  0
 21 23  1  0  0  0  0
 22 21  1  0  0  0  0
 23 25  2  0  0  0  0
 23 24  1  0  0  0  0
 25 26  1  0  0  0  0
M  END
