5,6
 OpenBabel05122313053D

 46 47  0  0  1  0  0  0  0  0999 V2000
   -1.2384   -2.3150    2.0384 O   0  0  0  0  0  0  0  0  0  0  0  0
   -0.4903   -3.0073    1.9721 H   0  0  0  0  0  0  0  0  0  0  0  0
    1.3976    2.2574    0.7125 O   0  0  0  0  0  0  0  0  0  0  0  0
    3.1830    3.1801   -0.3309 O   0  0  0  0  0  0  0  0  0  0  0  0
   -1.0099   -1.5844    0.9301 N   0  0  0  0  0  2  0  0  0  0  0  0
    0.0585    0.2242   -0.6386 N   0  0  0  0  0  0  0  0  0  0  0  0
    0.3341    0.7986    0.1871 H   0  0  0  0  0  0  0  0  0  0  0  0
   -1.8276   -0.6180    0.6290 C   0  0  1  0  0  3  0  0  0  0  0  0
   -2.9117   -0.1390    1.5597 C   0  0  0  0  0  0  0  0  0  0  0  0
   -2.5315   -0.2607    2.5964 H   0  0  0  0  0  0  0  0  0  0  0  0
   -3.8150   -0.7842    1.4980 H   0  0  0  0  0  0  0  0  0  0  0  0
   -3.2390    1.3332    1.2626 C   0  0  2  0  0  0  0  0  0  0  0  0
   -3.9074    1.7580    2.0393 H   0  0  0  0  0  0  0  0  0  0  0  0
   -3.6664    1.5146   -0.2311 C   0  0  0  0  0  0  0  0  0  0  0  0
   -2.1110    1.5405   -0.5337 C   0  0  2  0  0  0  0  0  0  0  0  0
   -1.8016    2.1879   -1.3789 H   0  0  0  0  0  0  0  0  0  0  0  0
   -1.4602    0.1397   -0.6515 C   0  0  1  0  0  0  0  0  0  0  0  0
   -1.9175    2.0697    0.9194 C   0  0  0  0  0  0  0  0  0  0  0  0
   -1.0010    1.7667    1.4634 H   0  0  0  0  0  0  0  0  0  0  0  0
   -1.9964    3.1688    0.9854 H   0  0  0  0  0  0  0  0  0  0  0  0
   -1.8517   -0.6195   -1.9333 C   0  0  0  0  0  0  0  0  0  0  0  0
   -2.8981   -0.9591   -1.9100 H   0  0  0  0  0  0  0  0  0  0  0  0
   -1.2023   -1.5114   -2.0449 H   0  0  0  0  0  0  0  0  0  0  0  0
   -1.7227    0.0279   -2.8230 H   0  0  0  0  0  0  0  0  0  0  0  0
    0.6894    0.9006   -1.7987 C   0  0  0  0  0  0  0  0  0  0  0  0
    0.7758    0.1814   -2.6346 H   0  0  0  0  0  0  0  0  0  0  0  0
    0.0489    1.7479   -2.1271 H   0  0  0  0  0  0  0  0  0  0  0  0
    2.0904    1.4062   -1.4507 C   0  0  0  0  0  0  0  0  0  0  0  0
    2.5497    1.9014   -2.3269 H   0  0  0  0  0  0  0  0  0  0  0  0
    2.7230    0.5098   -1.2284 H   0  0  0  0  0  0  0  0  0  0  0  0
    2.1573    2.3164   -0.2550 C   0  0  0  0  0  0  0  0  0  0  0  0
    3.4337    4.0048    0.8368 C   0  0  0  0  0  0  0  0  0  0  0  0
    2.4605    4.3282    1.2577 H   0  0  0  0  0  0  0  0  0  0  0  0
    3.9707    4.8864    0.4371 H   0  0  0  0  0  0  0  0  0  0  0  0
    4.2608    3.2601    1.8704 C   0  0  0  0  0  0  0  0  0  0  0  0
    3.6986    2.3970    2.2767 H   0  0  0  0  0  0  0  0  0  0  0  0
    4.5075    3.9364    2.7134 H   0  0  0  0  0  0  0  0  0  0  0  0
    5.2095    2.8932    1.4315 H   0  0  0  0  0  0  0  0  0  0  0  0
   -4.2654    2.9049   -0.5002 C   0  0  0  0  0  0  0  0  0  0  0  0
   -4.3751    3.0705   -1.5919 H   0  0  0  0  0  0  0  0  0  0  0  0
   -3.6504    3.7313   -0.0969 H   0  0  0  0  0  0  0  0  0  0  0  0
   -5.2744    2.9840   -0.0462 H   0  0  0  0  0  0  0  0  0  0  0  0
   -4.6178    0.4787   -0.8313 C   0  0  0  0  0  0  0  0  0  0  0  0
   -5.6339    0.6351   -0.4124 H   0  0  0  0  0  0  0  0  0  0  0  0
   -4.3398   -0.5693   -0.6180 H   0  0  0  0  0  0  0  0  0  0  0  0
   -4.6968    0.5934   -1.9314 H   0  0  0  0  0  0  0  0  0  0  0  0
  2  1  1  0  0  0  0
  4 31  1  0  0  0  0
  4 32  1  0  0  0  0
  5  1  1  0  0  0  0
  6  7  1  0  0  0  0
  8  5  1  1  0  0  0
  8  9  1  0  0  0  0
  9 10  1  0  0  0  0
 11  9  1  0  0  0  0
 12  9  1  0  0  0  0
 12 13  1  1  0  0  0
 14 12  1  0  0  0  0
 15 16  1  6  0  0  0
 15 14  1  0  0  0  0
 15 18  1  0  0  0  0
 17 21  1  6  0  0  0
 17  6  1  0  0  0  0
 17 15  1  0  0  0  0
 17  8  1  0  0  0  0
 18 20  1  0  0  0  0
 18 12  1  0  0  0  0
 18 19  1  0  0  0  0
 21 22  1  0  0  0  0
 23 21  1  0  0  0  0
 24 21  1  0  0  0  0
 25 28  1  0  0  0  0
 25  6  1  0  0  0  0
 26 25  1  0  0  0  0
 27 25  1  0  0  0  0
 28 30  1  0  0  0  0
 28 31  1  0  0  0  0
 29 28  1  0  0  0  0
 31  3  2  0  0  0  0
 32 33  1  0  0  0  0
 32 35  1  0  0  0  0
 34 32  1  0  0  0  0
 35 36  1  0  0  0  0
 35 37  1  0  0  0  0
 38 35  1  0  0  0  0
 39 14  1  0  0  0  0
 39 41  1  0  0  0  0
 39 42  1  0  0  0  0
 40 39  1  0  0  0  0
 43 45  1  0  0  0  0
 43 44  1  0  0  0  0
 43 14  1  0  0  0  0
 46 43  1  0  0  0  0
M  END
