1,2
 OpenBabel05122313053D

 39 42  0  0  1  0  0  0  0  0999 V2000
    1.6729   -2.1693   -0.3950 N   0  0  0  0  0  2  0  0  0  0  0  0
    0.1634    0.0468   -0.4521 N   0  0  0  0  0  2  0  0  0  0  0  0
    1.1263    2.7073   -1.5430 C   0  0  0  0  0  0  0  0  0  0  0  0
    1.4425    1.8865   -2.1985 H   0  0  0  0  0  0  0  0  0  0  0  0
   -8.6776   -0.1902    0.3513 Cl  0  0  0  0  0  0  0  0  0  0  0  0
    2.5123   -3.2214   -0.5111 C   0  0  0  0  0  3  0  0  0  0  0  0
    3.5798   -3.0017   -0.3669 H   0  0  0  0  0  0  0  0  0  0  0  0
    2.0620   -4.5148   -0.7800 C   0  0  0  0  0  0  0  0  0  0  0  0
    2.7857   -5.3378   -0.8586 H   0  0  0  0  0  0  0  0  0  0  0  0
    0.6834   -4.7280   -0.9398 C   0  0  0  0  0  0  0  0  0  0  0  0
    0.2899   -5.7322   -1.1547 H   0  0  0  0  0  0  0  0  0  0  0  0
   -0.1848   -3.6397   -0.8288 C   0  0  0  0  0  0  0  0  0  0  0  0
   -1.2642   -3.7789   -0.9701 H   0  0  0  0  0  0  0  0  0  0  0  0
    0.3318   -2.3595   -0.5493 C   0  0  0  0  0  0  0  0  0  0  0  0
   -0.5062   -1.1463   -0.4592 C   0  0  2  0  0  3  0  0  0  0  0  0
   -1.9045   -1.2129   -0.3923 C   0  0  0  0  0  0  0  0  0  0  0  0
   -2.3978   -2.1919   -0.3514 H   0  0  0  0  0  0  0  0  0  0  0  0
   -2.6711   -0.0379   -0.2755 C   0  0  0  0  0  0  0  0  0  0  0  0
   -1.9642    1.1782   -0.3120 C   0  0  0  0  0  0  0  0  0  0  0  0
   -2.4741    2.1491   -0.2653 H   0  0  0  0  0  0  0  0  0  0  0  0
   -0.5677    1.1921   -0.4399 C   0  0  0  0  0  0  0  0  0  0  0  0
    0.1080    2.5112   -0.5877 C   0  0  0  0  0  0  0  0  0  0  0  0
   -0.3680    3.5029    0.1899 N   0  0  0  0  0  0  0  0  0  0  0  0
    0.2138    4.7059    0.0988 C   0  0  0  0  0  0  0  0  0  0  0  0
   -0.1856    5.4930    0.7625 H   0  0  0  0  0  0  0  0  0  0  0  0
    1.2719    4.9901   -0.7813 C   0  0  0  0  0  0  0  0  0  0  0  0
    1.7212    5.9938   -0.8046 H   0  0  0  0  0  0  0  0  0  0  0  0
    1.7194    3.9718   -1.6339 C   0  0  0  0  0  0  0  0  0  0  0  0
    2.5257    4.1532   -2.3603 H   0  0  0  0  0  0  0  0  0  0  0  0
   -4.1423   -0.0780   -0.1282 C   0  0  0  0  0  0  0  0  0  0  0  0
   -4.8197    0.9214    0.6073 C   0  0  0  0  0  0  0  0  0  0  0  0
   -4.2456    1.7227    1.0956 H   0  0  0  0  0  0  0  0  0  0  0  0
   -6.2093    0.8912    0.7621 C   0  0  0  0  0  0  0  0  0  0  0  0
   -6.7278    1.6631    1.3475 H   0  0  0  0  0  0  0  0  0  0  0  0
   -6.9474   -0.1472    0.1687 C   0  0  0  0  0  0  0  0  0  0  0  0
   -6.3009   -1.1513   -0.5719 C   0  0  0  0  0  0  0  0  0  0  0  0
   -6.8930   -1.9503   -1.0393 H   0  0  0  0  0  0  0  0  0  0  0  0
   -4.9097   -1.1115   -0.7116 C   0  0  0  0  0  0  0  0  0  0  0  0
   -4.4149   -1.8871   -1.3150 H   0  0  0  0  0  0  0  0  0  0  0  0
  2 21  1  0  0  0  0
  3 22  1  0  0  0  0
  4  3  1  0  0  0  0
  6  1  1  0  0  0  0
  6  7  1  0  0  0  0
  8  6  1  0  0  0  0
  9  8  1  0  0  0  0
 10 12  1  0  0  0  0
 10  8  2  0  0  0  0
 11 10  1  0  0  0  0
 12 14  2  0  0  0  0
 13 12  1  0  0  0  0
 14  1  1  0  0  0  0
 15 14  1  6  0  0  0
 15  2  1  0  0  0  0
 15 16  1  0  0  0  0
 16 17  1  0  0  0  0
 16 18  2  0  0  0  0
 18 30  1  0  0  0  0
 19 18  1  0  0  0  0
 19 20  1  0  0  0  0
 21 19  2  0  0  0  0
 22 21  1  0  0  0  0
 22 23  2  0  0  0  0
 24 23  1  0  0  0  0
 24 25  1  0  0  0  0
 26 24  2  0  0  0  0
 27 26  1  0  0  0  0
 28  3  2  0  0  0  0
 28 26  1  0  0  0  0
 29 28  1  0  0  0  0
 30 31  1  0  0  0  0
 31 33  2  0  0  0  0
 31 32  1  0  0  0  0
 33 34  1  0  0  0  0
 35  5  1  0  0  0  0
 35 33  1  0  0  0  0
 36 35  2  0  0  0  0
 37 36  1  0  0  0  0
 38 36  1  0  0  0  0
 38 30  2  0  0  0  0
 39 38  1  0  0  0  0
M  END
