3,4
 OpenBabel05122313053D

 29 30  0  0  1  0  0  0  0  0999 V2000
   -6.4366   -5.9939    0.0387 Cl  0  0  0  0  0  0  0  0  0  0  0  0
   -6.4366    5.9939    0.0385 Cl  0  0  0  0  0  0  0  0  0  0  0  0
   -1.4334    1.3817   -0.0063 N   0  0  0  0  0  2  0  0  0  0  0  0
   -1.4335   -1.3818   -0.0062 N   0  0  0  0  0  2  0  0  0  0  0  0
   -3.3789    0.0000    0.0439 N   0  0  0  0  0  0  0  0  0  0  0  0
   -3.6457    2.3868    0.0476 C   0  0  0  0  0  0  0  0  0  0  0  0
   -5.3714    4.6146    0.0453 C   0  0  0  0  0  0  0  0  0  0  0  0
   -3.2052    3.6443    0.5131 C   0  0  0  0  0  0  0  0  0  0  0  0
   -2.1886    3.7623    0.9198 H   0  0  0  0  0  0  0  0  0  0  0  0
   -4.0551   -4.7566    0.5148 C   0  0  0  0  0  0  0  0  0  0  0  0
   -3.7113   -5.7305    0.8898 H   0  0  0  0  0  0  0  0  0  0  0  0
   -2.7475    1.1868    0.0267 C   0  0  2  0  0  3  0  0  0  0  0  0
   -2.7475   -1.1868    0.0268 C   0  0  0  0  0  0  0  0  0  0  0  0
   -3.6457   -2.3868    0.0477 C   0  0  0  0  0  0  0  0  0  0  0  0
   -5.3714   -4.6146    0.0455 C   0  0  0  0  0  0  0  0  0  0  0  0
   -4.9797   -2.2670   -0.3945 C   0  0  0  0  0  0  0  0  0  0  0  0
   -5.3255   -1.2803   -0.7306 H   0  0  0  0  0  0  0  0  0  0  0  0
   -4.0551    4.7565    0.5148 C   0  0  0  0  0  0  0  0  0  0  0  0
   -3.7113    5.7305    0.8898 H   0  0  0  0  0  0  0  0  0  0  0  0
   -5.8397   -3.3695   -0.4079 C   0  0  0  0  0  0  0  0  0  0  0  0
   -6.8749   -3.2748   -0.7644 H   0  0  0  0  0  0  0  0  0  0  0  0
   -3.2052   -3.6443    0.5131 C   0  0  0  0  0  0  0  0  0  0  0  0
   -2.1885   -3.7624    0.9198 H   0  0  0  0  0  0  0  0  0  0  0  0
   -4.9796    2.2670   -0.3947 C   0  0  0  0  0  0  0  0  0  0  0  0
   -5.3254    1.2803   -0.7308 H   0  0  0  0  0  0  0  0  0  0  0  0
   -5.8396    3.3696   -0.4081 C   0  0  0  0  0  0  0  0  0  0  0  0
   -6.8748    3.2749   -0.7647 H   0  0  0  0  0  0  0  0  0  0  0  0
   -1.1672   -2.3688   -0.0859 H   0  0  0  0  0  0  0  0  0  0  0  0
   -1.1672    2.3688   -0.0861 H   0  0  0  0  0  0  0  0  0  0  0  0
  1 15  1  0  0  0  0
  2  7  1  0  0  0  0
  4 13  1  0  0  0  0
  6  8  1  0  0  0  0
  7 18  1  0  0  0  0
  8 18  2  0  0  0  0
  8  9  1  0  0  0  0
 10 11  1  0  0  0  0
 12  3  1  6  0  0  0
 12  5  1  0  0  0  0
 12  6  1  0  0  0  0
 13  5  2  0  0  0  0
 13 14  1  0  0  0  0
 14 22  2  0  0  0  0
 15 10  2  0  0  0  0
 16 14  1  0  0  0  0
 17 16  1  0  0  0  0
 18 19  1  0  0  0  0
 20 16  2  0  0  0  0
 20 15  1  0  0  0  0
 21 20  1  0  0  0  0
 22 10  1  0  0  0  0
 22 23  1  0  0  0  0
 24  6  2  0  0  0  0
 25 24  1  0  0  0  0
 26 24  1  0  0  0  0
 26  7  2  0  0  0  0
 27 26  1  0  0  0  0
 28  4  1  0  0  0  0
 29  3  1  0  0  0  0
M  END
