1,3
 OpenBabel05122313053D

 35 36  0  0  1  0  0  0  0  0999 V2000
   -2.2216    1.0162   -0.5812 N   0  0  0  0  0  0  0  0  0  0  0  0
   -2.7685    0.8308   -1.4320 H   0  0  0  0  0  0  0  0  0  0  0  0
    0.3291   -0.2490   -0.4777 N   0  0  0  0  0  0  0  0  0  0  0  0
    0.4208   -0.4452   -1.4861 H   0  0  0  0  0  0  0  0  0  0  0  0
   -3.0027    1.8713    0.3452 C   0  0  0  0  0  0  0  0  0  0  0  0
   -2.6154    1.6972    1.3716 H   0  0  0  0  0  0  0  0  0  0  0  0
   -4.0657    1.5629    0.3372 H   0  0  0  0  0  0  0  0  0  0  0  0
   -2.7427    3.2993   -0.1426 C   0  0  0  0  0  0  0  0  0  0  0  0
   -3.3742    3.5189   -1.0300 H   0  0  0  0  0  0  0  0  0  0  0  0
   -2.9679    4.0678    0.6226 H   0  0  0  0  0  0  0  0  0  0  0  0
   -1.2528    3.2607   -0.5335 C   0  0  0  0  0  0  0  0  0  0  0  0
   -0.6200    3.5236    0.3394 H   0  0  0  0  0  0  0  0  0  0  0  0
   -1.0016    3.9722   -1.3432 H   0  0  0  0  0  0  0  0  0  0  0  0
   -0.9848    1.7850   -0.9429 C   0  0  1  0  0  0  0  0  0  0  0  0
   -0.8353    1.6880   -2.0394 H   0  0  0  0  0  0  0  0  0  0  0  0
    0.2350    1.1936   -0.2258 C   0  0  0  0  0  0  0  0  0  0  0  0
    1.1523    1.7479   -0.5267 H   0  0  0  0  0  0  0  0  0  0  0  0
    0.1104    1.3144    0.8722 H   0  0  0  0  0  0  0  0  0  0  0  0
    1.3864   -0.9706    0.2777 C   0  0  1  0  0  0  0  0  0  0  0  0
    1.0770   -0.8952    1.3428 H   0  0  0  0  0  0  0  0  0  0  0  0
    1.3666   -2.4448   -0.1330 C   0  0  0  0  0  0  0  0  0  0  0  0
    0.3475   -2.8701   -0.0336 H   0  0  0  0  0  0  0  0  0  0  0  0
    2.0658   -3.0262    0.4971 H   0  0  0  0  0  0  0  0  0  0  0  0
    1.6787   -2.5716   -1.1907 H   0  0  0  0  0  0  0  0  0  0  0  0
    2.7611   -0.3363    0.1227 C   0  0  0  0  0  0  0  0  0  0  0  0
    3.4661    0.1214    1.2511 C   0  0  0  0  0  0  0  0  0  0  0  0
    3.0089    0.0146    2.2478 H   0  0  0  0  0  0  0  0  0  0  0  0
    4.7347    0.7082    1.1177 C   0  0  0  0  0  0  0  0  0  0  0  0
    5.2727    1.0580    2.0120 H   0  0  0  0  0  0  0  0  0  0  0  0
    5.3125    0.8525   -0.1526 C   0  0  0  0  0  0  0  0  0  0  0  0
    6.3055    1.3147   -0.2602 H   0  0  0  0  0  0  0  0  0  0  0  0
    4.6162    0.4045   -1.2877 C   0  0  0  0  0  0  0  0  0  0  0  0
    5.0638    0.5132   -2.2875 H   0  0  0  0  0  0  0  0  0  0  0  0
    3.3528   -0.1871   -1.1485 C   0  0  0  0  0  0  0  0  0  0  0  0
    2.8201   -0.5402   -2.0471 H   0  0  0  0  0  0  0  0  0  0  0  0
  1  5  1  0  0  0  0
  2  1  1  0  0  0  0
  3 16  1  0  0  0  0
  3 19  1  0  0  0  0
  4  3  1  0  0  0  0
  5  6  1  0  0  0  0
  7  5  1  0  0  0  0
  8  5  1  0  0  0  0
  8 10  1  0  0  0  0
  9  8  1  0  0  0  0
 11  8  1  0  0  0  0
 11 12  1  0  0  0  0
 13 11  1  0  0  0  0
 14 15  1  6  0  0  0
 14  1  1  0  0  0  0
 14 11  1  0  0  0  0
 14 16  1  0  0  0  0
 16 18  1  0  0  0  0
 17 16  1  0  0  0  0
 19 20  1  1  0  0  0
 21 22  1  0  0  0  0
 21 19  1  0  0  0  0
 21 23  1  0  0  0  0
 24 21  1  0  0  0  0
 25 19  1  0  0  0  0
 25 26  1  0  0  0  0
 26 27  1  0  0  0  0
 28 26  2  0  0  0  0
 28 29  1  0  0  0  0
 30 28  1  0  0  0  0
 31 30  1  0  0  0  0
 32 34  1  0  0  0  0
 32 30  2  0  0  0  0
 33 32  1  0  0  0  0
 34 25  2  0  0  0  0
 35 34  1  0  0  0  0
M  END
