2,19
 OpenBabel05122313053D

 30 32  0  0  0  0  0  0  0  0999 V2000
    0.4426   -3.6564   -0.0126 O   0  0  0  0  0  0  0  0  0  0  0  0
   -1.7264   -0.8370   -0.1770 N   0  0  0  0  0  2  0  0  0  0  0  0
   -4.0742   -1.4746   -0.4170 C   0  0  0  0  0  0  0  0  0  0  0  0
   -3.0400   -0.4697   -0.3858 C   0  0  0  0  0  0  0  0  0  0  0  0
   -3.3910    0.8911   -0.5998 C   0  0  0  0  0  0  0  0  0  0  0  0
   -2.5769    1.6236   -0.6679 H   0  0  0  0  0  0  0  0  0  0  0  0
   -2.3605   -3.1728   -0.1912 C   0  0  0  0  0  0  0  0  0  0  0  0
   -1.9774   -4.2017   -0.1369 H   0  0  0  0  0  0  0  0  0  0  0  0
   -3.6974   -2.8435   -0.2958 C   0  0  0  0  0  0  0  0  0  0  0  0
   -4.4783   -3.6197   -0.3113 H   0  0  0  0  0  0  0  0  0  0  0  0
   -5.7478    0.2729   -0.7639 C   0  0  0  0  0  0  0  0  0  0  0  0
   -6.7957    0.5769   -0.9042 H   0  0  0  0  0  0  0  0  0  0  0  0
    0.0651   -2.4775   -0.0933 C   0  0  0  0  0  0  0  0  0  0  0  0
   -4.7184    1.2502   -0.7874 C   0  0  0  0  0  0  0  0  0  0  0  0
   -4.9732    2.3047   -0.9719 H   0  0  0  0  0  0  0  0  0  0  0  0
   -1.3967   -2.1372   -0.1430 C   0  0  0  0  0  0  0  0  0  0  0  0
   -5.4272   -1.0651   -0.5905 C   0  0  0  0  0  3  0  0  0  0  0  0
   -6.2114   -1.8376   -0.5989 H   0  0  0  0  0  0  0  0  0  0  0  0
    0.8261   -1.3512   -0.2199 N   0  0  0  0  0  2  0  0  0  0  0  0
    2.2320   -1.4305   -0.3073 C   0  0  0  0  0  0  0  0  0  0  0  0
    2.9073   -0.5430   -1.1775 C   0  0  0  0  0  0  0  0  0  0  0  0
    2.2967    0.1303   -1.7980 H   0  0  0  0  0  0  0  0  0  0  0  0
    5.0350   -1.4406   -0.4727 C   0  0  0  0  0  0  0  0  0  0  0  0
    2.9933   -2.3434    0.4617 C   0  0  0  0  0  0  0  0  0  0  0  0
    2.4757   -3.0659    1.1048 H   0  0  0  0  0  0  0  0  0  0  0  0
    4.3932   -2.3452    0.3804 C   0  0  0  0  0  0  0  0  0  0  0  0
    4.9980   -3.0472    0.9728 H   0  0  0  0  0  0  0  0  0  0  0  0
    4.3038   -0.5397   -1.2593 C   0  0  0  0  0  0  0  0  0  0  0  0
    4.8369    0.1435   -1.9364 H   0  0  0  0  0  0  0  0  0  0  0  0
    6.3826   -1.4400   -0.5458 F   0  0  0  0  0  0  0  0  0  0  0  0
  2 16  1  0  0  0  0
  3  4  1  0  0  0  0
  3  9  2  0  0  0  0
  4  2  1  0  0  0  0
  5  4  2  0  0  0  0
  6  5  1  0  0  0  0
  7 16  2  0  0  0  0
  7  8  1  0  0  0  0
  9  7  1  0  0  0  0
 10  9  1  0  0  0  0
 11 17  1  0  0  0  0
 12 11  1  0  0  0  0
 13  1  2  0  0  0  0
 14 11  2  0  0  0  0
 14  5  1  0  0  0  0
 15 14  1  0  0  0  0
 16 13  1  0  0  0  0
 17  3  1  0  0  0  0
 18 17  1  0  0  0  0
 19 13  1  0  0  0  0
 20 19  1  0  0  0  0
 20 24  1  0  0  0  0
 21 20  2  0  0  0  0
 22 21  1  0  0  0  0
 23 26  1  0  0  0  0
 24 25  1  0  0  0  0
 26 24  2  0  0  0  0
 26 27  1  0  0  0  0
 28 21  1  0  0  0  0
 28 23  2  0  0  0  0
 29 28  1  0  0  0  0
 30 23  1  0  0  0  0
M  END
