16,17
 OpenBabel05122313053D

 66 73  0  0  1  0  0  0  0  0999 V2000
    2.8387   -2.4989    2.4837 F   0  0  0  0  0  0  0  0  0  0  0  0
    5.2426   -3.7644    2.3740 F   0  0  0  0  0  0  0  0  0  0  0  0
    5.9599   -5.1487    0.1237 F   0  0  0  0  0  0  0  0  0  0  0  0
    4.2634   -5.2597   -2.0215 F   0  0  0  0  0  0  0  0  0  0  0  0
    1.8619   -3.9919   -1.9241 F   0  0  0  0  0  0  0  0  0  0  0  0
    4.2389    1.2145   -1.2074 F   0  0  0  0  0  0  0  0  0  0  0  0
    6.6805    2.3414   -1.1381 F   0  0  0  0  0  0  0  0  0  0  0  0
    7.0282    4.8492   -0.0780 F   0  0  0  0  0  0  0  0  0  0  0  0
    4.8710    6.1975    0.9511 F   0  0  0  0  0  0  0  0  0  0  0  0
    2.4280    5.0750    0.9465 F   0  0  0  0  0  0  0  0  0  0  0  0
   -0.9957    0.8142   -2.6535 F   0  0  0  0  0  0  0  0  0  0  0  0
   -1.1872   -1.7774   -3.3630 F   0  0  0  0  0  0  0  0  0  0  0  0
   -3.2725   -3.3098   -2.4543 F   0  0  0  0  0  0  0  0  0  0  0  0
   -5.1236   -2.2254   -0.7564 F   0  0  0  0  0  0  0  0  0  0  0  0
   -4.9131    0.3375    0.0337 F   0  0  0  0  0  0  0  0  0  0  0  0
   -1.4889   -2.7170    0.5673 N   0  0  0  0  0  2  0  0  0  0  0  0
   -0.2341   -0.3598    0.2443 N   0  0  0  0  0  2  0  0  0  0  0  0
   -0.4046    2.1317   -0.2327 N   0  0  0  0  0  0  0  0  0  0  0  0
   -5.0979    2.6148   -1.7670 N   0  0  0  0  0  0  0  0  0  0  0  0
   -5.0544    1.8890   -2.4819 H   0  0  0  0  0  0  0  0  0  0  0  0
   -2.3819   -3.7297    0.5416 C   0  0  0  0  0  3  0  0  0  0  0  0
   -3.4490   -3.5333    0.6885 H   0  0  0  0  0  0  0  0  0  0  0  0
   -1.7252   -4.9752    0.3417 C   0  0  0  0  0  0  0  0  0  0  0  0
   -2.2154   -5.9524    0.2642 H   0  0  0  0  0  0  0  0  0  0  0  0
   -0.3608   -4.6991    0.2667 C   0  0  0  0  0  0  0  0  0  0  0  0
    0.4605   -5.4087    0.1194 H   0  0  0  0  0  0  0  0  0  0  0  0
   -0.2193   -3.2794    0.3966 C   0  0  0  0  0  0  0  0  0  0  0  0
    0.9616   -2.5102    0.3469 C   0  0  0  0  0  0  0  0  0  0  0  0
    0.9685   -1.1058    0.3095 C   0  0  0  0  0  0  0  0  0  0  0  0
    2.1066   -0.2419    0.1786 C   0  0  0  0  0  0  0  0  0  0  0  0
    3.1498   -0.5698    0.1725 H   0  0  0  0  0  0  0  0  0  0  0  0
    1.5995    1.0501    0.0038 C   0  0  0  0  0  0  0  0  0  0  0  0
    0.1635    0.9005    0.0131 C   0  0  2  0  0  3  0  0  0  0  0  0
    1.8996    2.4600   -0.1439 C   0  0  0  0  0  0  0  0  0  0  0  0
    0.6438    3.0921   -0.2715 C   0  0  0  0  0  0  0  0  0  0  0  0
    0.0296    4.3594   -0.5238 C   0  0  0  0  0  0  0  0  0  0  0  0
    0.5621    5.3101   -0.6188 H   0  0  0  0  0  0  0  0  0  0  0  0
   -1.3300    4.1542   -0.6702 C   0  0  0  0  0  0  0  0  0  0  0  0
   -2.0802    4.9047   -0.9377 H   0  0  0  0  0  0  0  0  0  0  0  0
   -1.6304    2.7369   -0.5561 C   0  0  0  0  0  0  0  0  0  0  0  0
   -2.8388    2.1080   -0.8687 C   0  0  1  0  0  3  0  0  0  0  0  0
   -4.0605    2.8953   -0.8908 C   0  0  0  0  0  0  0  0  0  0  0  0
   -4.4911    3.9799   -0.1022 C   0  0  0  0  0  0  0  0  0  0  0  0
   -3.9248    4.4173    0.7263 H   0  0  0  0  0  0  0  0  0  0  0  0
   -5.7948    4.3418   -0.5315 C   0  0  0  0  0  0  0  0  0  0  0  0
   -6.4265    5.1369   -0.1206 H   0  0  0  0  0  0  0  0  0  0  0  0
   -6.1455    3.4751   -1.5680 C   0  0  0  0  0  0  0  0  0  0  0  0
   -7.0570    3.4113   -2.1718 H   0  0  0  0  0  0  0  0  0  0  0  0
    2.2729   -3.2147    0.2869 C   0  0  0  0  0  0  0  0  0  0  0  0
    3.1672   -3.1671    1.3729 C   0  0  0  0  0  0  0  0  0  0  0  0
    4.4119   -3.8165    1.3296 C   0  0  0  0  0  0  0  0  0  0  0  0
    4.7806   -4.5287    0.1756 C   0  0  0  0  0  0  0  0  0  0  0  0
    3.9071   -4.5880   -0.9237 C   0  0  0  0  0  0  0  0  0  0  0  0
    2.6670   -3.9313   -0.8587 C   0  0  0  0  0  0  0  0  0  0  0  0
    3.2150    3.0925   -0.1386 C   0  0  0  0  0  0  0  0  0  0  0  0
    4.3573    2.4301   -0.6531 C   0  0  0  0  0  0  0  0  0  0  0  0
    5.6369    3.0036   -0.6308 C   0  0  0  0  0  0  0  0  0  0  0  0
    5.8173    4.2895   -0.0950 C   0  0  0  0  0  0  0  0  0  0  0  0
    4.7089    4.9808    0.4225 C   0  0  0  0  0  0  0  0  0  0  0  0
    3.4410    4.3829    0.4008 C   0  0  0  0  0  0  0  0  0  0  0  0
   -2.9301    0.6905   -1.2598 C   0  0  0  0  0  0  0  0  0  0  0  0
   -2.0047    0.0933   -2.1518 C   0  0  0  0  0  0  0  0  0  0  0  0
   -2.1022   -1.2479   -2.5506 C   0  0  0  0  0  0  0  0  0  0  0  0
   -3.1778   -2.0293   -2.1020 C   0  0  0  0  0  0  0  0  0  0  0  0
   -4.1307   -1.4656   -1.2379 C   0  0  0  0  0  0  0  0  0  0  0  0
   -3.9988   -0.1355   -0.8236 C   0  0  0  0  0  0  0  0  0  0  0  0
  3 52  1  0  0  0  0
  4 53  1  0  0  0  0
  5 54  1  0  0  0  0
  6 56  1  0  0  0  0
  7 57  1  0  0  0  0
 11 62  1  0  0  0  0
 12 63  1  0  0  0  0
 13 64  1  0  0  0  0
 17 29  1  0  0  0  0
 18 33  1  0  0  0  0
 19 47  1  0  0  0  0
 19 42  1  0  0  0  0
 20 19  1  0  0  0  0
 21 16  1  0  0  0  0
 21 22  1  0  0  0  0
 23 21  1  0  0  0  0
 24 23  1  0  0  0  0
 25 23  2  0  0  0  0
 25 27  1  0  0  0  0
 26 25  1  0  0  0  0
 27 16  1  0  0  0  0
 28 27  2  0  0  0  0
 29 28  1  0  0  0  0
 30 29  2  0  0  0  0
 31 30  1  0  0  0  0
 32 30  1  0  0  0  0
 33 32  1  6  0  0  0
 33 17  1  0  0  0  0
 34 55  1  0  0  0  0
 34 32  2  0  0  0  0
 35 18  1  0  0  0  0
 35 34  1  0  0  0  0
 36 35  2  0  0  0  0
 37 36  1  0  0  0  0
 38 40  2  0  0  0  0
 38 36  1  0  0  0  0
 39 38  1  0  0  0  0
 40 18  1  0  0  0  0
 41 61  1  6  0  0  0
 41 40  1  0  0  0  0
 42 41  1  0  0  0  0
 42 43  2  0  0  0  0
 43 44  1  0  0  0  0
 45 46  1  0  0  0  0
 45 43  1  0  0  0  0
 47 45  2  0  0  0  0
 48 47  1  0  0  0  0
 49 28  1  0  0  0  0
 49 50  1  0  0  0  0
 50  1  1  0  0  0  0
 51 50  2  0  0  0  0
 51  2  1  0  0  0  0
 52 51  1  0  0  0  0
 53 54  1  0  0  0  0
 53 52  2  0  0  0  0
 54 49  2  0  0  0  0
 55 60  1  0  0  0  0
 56 57  1  0  0  0  0
 56 55  2  0  0  0  0
 57 58  2  0  0  0  0
 58  8  1  0  0  0  0
 58 59  1  0  0  0  0
 59  9  1  0  0  0  0
 60 59  2  0  0  0  0
 60 10  1  0  0  0  0
 61 66  1  0  0  0  0
 62 61  2  0  0  0  0
 63 62  1  0  0  0  0
 63 64  2  0  0  0  0
 64 65  1  0  0  0  0
 65 66  2  0  0  0  0
 65 14  1  0  0  0  0
 66 15  1  0  0  0  0
M  END
