3,4
 OpenBabel05122313053D

 26 27  0  0  0  0  0  0  0  0999 V2000
   -4.5409    3.3630    0.2851 Cl  0  0  0  0  0  0  0  0  0  0  0  0
   -2.5633    1.6812    0.3282 N   0  0  0  0  0  2  0  0  0  0  0  0
    1.0065    0.4476    0.2296 N   0  0  0  0  0  2  0  0  0  0  0  0
   -1.2910    1.3305    0.2953 N   0  0  0  0  0  2  0  0  0  0  0  0
    0.9868    1.7436    0.1295 N   0  0  0  0  0  2  0  0  0  0  0  0
    2.3506   -0.1767    0.1985 C   0  0  0  0  0  0  0  0  0  0  0  0
   -0.2732    2.2485    0.1457 C   0  0  0  0  0  0  0  0  0  0  0  0
   -1.9020    4.0073    0.0816 C   0  0  0  0  0  0  0  0  0  0  0  0
   -2.2188    5.0553   -0.0035 H   0  0  0  0  0  0  0  0  0  0  0  0
   -2.8686    2.9738    0.2311 C   0  0  0  0  0  0  0  0  0  0  0  0
   -0.5730    3.6277    0.0382 C   0  0  0  0  0  0  0  0  0  0  0  0
    0.2464    4.3483   -0.0892 H   0  0  0  0  0  0  0  0  0  0  0  0
    2.4636   -1.3694    0.4400 O   0  0  0  0  0  0  0  0  0  0  0  0
    3.3225    0.7138   -0.1153 N   0  0  0  0  0  0  0  0  0  0  0  0
    2.9843    1.6757   -0.2516 H   0  0  0  0  0  0  0  0  0  0  0  0
    5.2998   -0.7785   -0.0527 C   0  0  0  0  0  0  0  0  0  0  0  0
    4.6753   -1.6372    0.2180 H   0  0  0  0  0  0  0  0  0  0  0  0
    6.6845   -0.9104   -0.2125 C   0  0  0  0  0  0  0  0  0  0  0  0
    7.1483   -1.8964   -0.0614 H   0  0  0  0  0  0  0  0  0  0  0  0
    4.7039    0.4883   -0.2484 C   0  0  0  0  0  0  0  0  0  0  0  0
    5.5030    1.6017   -0.5989 C   0  0  0  0  0  0  0  0  0  0  0  0
    5.0325    2.5859   -0.7526 H   0  0  0  0  0  0  0  0  0  0  0  0
    7.4814    0.1930   -0.5597 C   0  0  0  0  0  0  0  0  0  0  0  0
    8.5680    0.0745   -0.6805 H   0  0  0  0  0  0  0  0  0  0  0  0
    6.8833    1.4508   -0.7520 C   0  0  0  0  0  0  0  0  0  0  0  0
    7.4978    2.3211   -1.0249 H   0  0  0  0  0  0  0  0  0  0  0  0
  4  2  1  0  0  0  0
  5  7  1  0  0  0  0
  5  3  1  0  0  0  0
  6  3  1  0  0  0  0
  6 13  2  0  0  0  0
  7  4  1  0  0  0  0
  8 10  2  0  0  0  0
  9  8  1  0  0  0  0
 10  1  1  0  0  0  0
 10  2  1  0  0  0  0
 11  8  1  0  0  0  0
 11  7  2  0  0  0  0
 12 11  1  0  0  0  0
 14  6  1  0  0  0  0
 15 14  1  0  0  0  0
 16 17  1  0  0  0  0
 18 19  1  0  0  0  0
 18 16  1  0  0  0  0
 20 14  1  0  0  0  0
 20 16  2  0  0  0  0
 21 20  1  0  0  0  0
 22 21  1  0  0  0  0
 23 18  2  0  0  0  0
 24 23  1  0  0  0  0
 25 21  2  0  0  0  0
 25 23  1  0  0  0  0
 26 25  1  0  0  0  0
M  END
