1,17
 OpenBabel05122313053D

 32 35  0  0  0  0  0  0  0  0999 V2000
    1.9307   -0.2053   -0.0759 N   0  0  0  0  0  2  0  0  0  0  0  0
    3.2972   -0.1119   -0.0992 C   0  0  0  0  0  0  0  0  0  0  0  0
    3.8958    1.1783   -0.1501 C   0  0  0  0  0  0  0  0  0  0  0  0
    3.2241    2.0536   -0.1672 H   0  0  0  0  0  0  0  0  0  0  0  0
    5.2781    1.2964   -0.1662 C   0  0  0  0  0  0  0  0  0  0  0  0
    5.7393    2.2948   -0.1994 H   0  0  0  0  0  0  0  0  0  0  0  0
    6.1047    0.1403   -0.1470 C   0  0  0  0  0  0  0  0  0  0  0  0
    7.1989    0.2544   -0.1650 H   0  0  0  0  0  0  0  0  0  0  0  0
    5.5413   -1.1289   -0.1096 C   0  0  0  0  0  0  0  0  0  0  0  0
    6.1789   -2.0263   -0.0944 H   0  0  0  0  0  0  0  0  0  0  0  0
    4.1283   -1.2904   -0.0837 C   0  0  0  0  0  0  0  0  0  0  0  0
    3.4804   -2.5606   -0.0429 C   0  0  0  0  0  0  0  0  0  0  0  0
    4.0904   -3.4768   -0.0338 H   0  0  0  0  0  0  0  0  0  0  0  0
    2.0980   -2.6298   -0.0036 C   0  0  0  0  0  0  0  0  0  0  0  0
    1.5624   -3.5876    0.0405 H   0  0  0  0  0  0  0  0  0  0  0  0
    1.3509   -1.4218   -0.0076 C   0  0  0  0  0  0  0  0  0  0  0  0
   -0.6966   -0.2347    0.2800 N   0  0  0  0  0  2  0  0  0  0  0  0
   -0.1165   -1.3870    0.0596 C   0  0  0  0  0  0  0  0  0  0  0  0
   -0.7612   -2.5526   -0.1611 O   0  0  0  0  0  0  0  0  0  0  0  0
   -2.1061   -2.6274    0.3742 C   0  0  0  0  0  0  0  0  0  0  0  0
   -2.0258   -2.8636    1.4622 H   0  0  0  0  0  0  0  0  0  0  0  0
   -2.5837   -3.4880   -0.1308 H   0  0  0  0  0  0  0  0  0  0  0  0
   -2.8596   -1.3425    0.1552 C   0  0  0  0  0  0  0  0  0  0  0  0
   -4.2479   -1.2729    0.0066 C   0  0  0  0  0  0  0  0  0  0  0  0
   -4.8643   -2.1836   -0.0134 H   0  0  0  0  0  0  0  0  0  0  0  0
   -4.8622   -0.0115   -0.1097 C   0  0  0  0  0  0  0  0  0  0  0  0
   -6.5939    0.0757   -0.2870 Cl  0  0  0  0  0  0  0  0  0  0  0  0
   -4.1032    1.1729   -0.0832 C   0  0  0  0  0  0  0  0  0  0  0  0
   -4.6082    2.1442   -0.1773 H   0  0  0  0  0  0  0  0  0  0  0  0
   -2.7132    1.1023    0.0565 C   0  0  0  0  0  0  0  0  0  0  0  0
   -2.0812    2.0075    0.0632 H   0  0  0  0  0  0  0  0  0  0  0  0
   -2.0883   -0.1556    0.1765 C   0  0  0  0  0  0  0  0  0  0  0  0
  1 16  1  0  0  0  0
  2 11  1  0  0  0  0
  2  1  1  0  0  0  0
  3  2  2  0  0  0  0
  4  3  1  0  0  0  0
  5  3  1  0  0  0  0
  5  7  2  0  0  0  0
  6  5  1  0  0  0  0
  7  9  1  0  0  0  0
  8  7  1  0  0  0  0
  9 10  1  0  0  0  0
  9 11  2  0  0  0  0
 11 12  1  0  0  0  0
 12 13  1  0  0  0  0
 12 14  2  0  0  0  0
 14 15  1  0  0  0  0
 16 14  1  0  0  0  0
 16 18  2  0  0  0  0
 18 17  1  0  0  0  0
 19 18  1  0  0  0  0
 19 20  1  0  0  0  0
 20 21  1  0  0  0  0
 22 20  1  0  0  0  0
 23 32  1  0  0  0  0
 23 20  1  0  0  0  0
 24 23  2  0  0  0  0
 25 24  1  0  0  0  0
 26 28  2  0  0  0  0
 26 24  1  0  0  0  0
 27 26  1  0  0  0  0
 28 30  1  0  0  0  0
 29 28  1  0  0  0  0
 30 31  1  0  0  0  0
 30 32  2  0  0  0  0
 32 17  1  0  0  0  0
M  END
