3,8
 OpenBabel05122313053D

 66 70  0  0  1  0  0  0  0  0999 V2000
   -7.5588    0.7562   -0.7875 O   0  0  0  0  0  0  0  0  0  0  0  0
    7.5588    0.7562   -0.7875 O   0  0  0  0  0  0  0  0  0  0  0  0
   -1.3188    0.3028   -0.5960 N   0  0  0  0  0  2  0  0  0  0  0  0
   -3.2380    0.7977    0.7739 N   0  0  0  0  0  0  0  0  0  0  0  0
   -5.6764    1.0160    0.5738 N   0  0  0  0  0  0  0  0  0  0  0  0
   -5.8611   -0.8461   -0.6621 N   0  0  0  0  0  0  0  0  0  0  0  0
   -3.4051   -0.7914   -0.8005 N   0  0  0  0  0  0  0  0  0  0  0  0
    1.3188    0.3028   -0.5960 N   0  0  0  0  0  2  0  0  0  0  0  0
    3.4052   -0.7914   -0.8005 N   0  0  0  0  0  0  0  0  0  0  0  0
    5.8611   -0.8461   -0.6621 N   0  0  0  0  0  0  0  0  0  0  0  0
    5.6763    1.0160    0.5737 N   0  0  0  0  0  0  0  0  0  0  0  0
    3.2380    0.7977    0.7739 N   0  0  0  0  0  0  0  0  0  0  0  0
   -0.7132    1.5609   -0.7415 C   0  0  0  0  0  0  0  0  0  0  0  0
   -1.4057    2.7635   -0.9881 C   0  0  0  0  0  0  0  0  0  0  0  0
   -2.5058    2.7538   -1.0232 H   0  0  0  0  0  0  0  0  0  0  0  0
   -0.7017    3.9593   -1.2052 C   0  0  0  0  0  0  0  0  0  0  0  0
   -1.2573    4.8907   -1.3902 H   0  0  0  0  0  0  0  0  0  0  0  0
    0.7018    3.9593   -1.2052 C   0  0  0  0  0  0  0  0  0  0  0  0
    1.2574    4.8907   -1.3902 H   0  0  0  0  0  0  0  0  0  0  0  0
    1.4057    2.7634   -0.9882 C   0  0  0  0  0  0  0  0  0  0  0  0
    2.5058    2.7537   -1.0233 H   0  0  0  0  0  0  0  0  0  0  0  0
    0.7132    1.5609   -0.7416 C   0  0  0  0  0  0  0  0  0  0  0  0
   -2.5963    0.1403   -0.2383 C   0  0  2  0  0  3  0  0  0  0  0  0
   -4.5594    0.2139    0.9949 C   0  0  1  0  0  0  0  0  0  0  0  0
   -4.6365   -0.0731    2.0688 H   0  0  0  0  0  0  0  0  0  0  0  0
   -6.4870    0.3616   -0.3532 C   0  0  0  0  0  0  0  0  0  0  0  0
   -4.6074   -1.0056    0.0170 C   0  0  1  0  0  0  0  0  0  0  0  0
   -4.5211   -1.9935    0.5224 H   0  0  0  0  0  0  0  0  0  0  0  0
   -2.5186    1.5182    1.8084 C   0  0  0  0  0  0  0  0  0  0  0  0
   -1.5139    1.0676    1.9481 H   0  0  0  0  0  0  0  0  0  0  0  0
   -3.0813    1.4270    2.7573 H   0  0  0  0  0  0  0  0  0  0  0  0
   -2.3942    2.5926    1.5606 H   0  0  0  0  0  0  0  0  0  0  0  0
   -6.0839    2.2236    1.2432 C   0  0  0  0  0  0  0  0  0  0  0  0
   -5.3328    3.0335    1.1224 H   0  0  0  0  0  0  0  0  0  0  0  0
   -6.2477    2.0554    2.3321 H   0  0  0  0  0  0  0  0  0  0  0  0
   -7.0379    2.5483    0.7846 H   0  0  0  0  0  0  0  0  0  0  0  0
   -6.4850   -1.8366   -1.5055 C   0  0  0  0  0  0  0  0  0  0  0  0
   -7.5415   -1.5348   -1.6419 H   0  0  0  0  0  0  0  0  0  0  0  0
   -6.4479   -2.8392   -1.0285 H   0  0  0  0  0  0  0  0  0  0  0  0
   -6.0167   -1.9075   -2.5113 H   0  0  0  0  0  0  0  0  0  0  0  0
   -2.9409   -1.7681   -1.7613 C   0  0  0  0  0  0  0  0  0  0  0  0
   -2.0513   -1.3531   -2.2697 H   0  0  0  0  0  0  0  0  0  0  0  0
   -3.7304   -1.9782   -2.5073 H   0  0  0  0  0  0  0  0  0  0  0  0
   -2.6361   -2.6994   -1.2357 H   0  0  0  0  0  0  0  0  0  0  0  0
    2.5963    0.1403   -0.2383 C   0  0  2  0  0  3  0  0  0  0  0  0
    4.6074   -1.0056    0.0170 C   0  0  1  0  0  0  0  0  0  0  0  0
    4.5211   -1.9935    0.5224 H   0  0  0  0  0  0  0  0  0  0  0  0
    6.4870    0.3616   -0.3531 C   0  0  0  0  0  0  0  0  0  0  0  0
    4.5593    0.2139    0.9949 C   0  0  1  0  0  0  0  0  0  0  0  0
    4.6365   -0.0731    2.0688 H   0  0  0  0  0  0  0  0  0  0  0  0
    2.9409   -1.7681   -1.7613 C   0  0  0  0  0  0  0  0  0  0  0  0
    2.6361   -2.6994   -1.2357 H   0  0  0  0  0  0  0  0  0  0  0  0
    3.7304   -1.9783   -2.5073 H   0  0  0  0  0  0  0  0  0  0  0  0
    2.0513   -1.3532   -2.2696 H   0  0  0  0  0  0  0  0  0  0  0  0
    6.4850   -1.8367   -1.5054 C   0  0  0  0  0  0  0  0  0  0  0  0
    7.5415   -1.5349   -1.6418 H   0  0  0  0  0  0  0  0  0  0  0  0
    6.0168   -1.9075   -2.5112 H   0  0  0  0  0  0  0  0  0  0  0  0
    6.4479   -2.8392   -1.0284 H   0  0  0  0  0  0  0  0  0  0  0  0
    6.0839    2.2236    1.2432 C   0  0  0  0  0  0  0  0  0  0  0  0
    7.0378    2.5484    0.7846 H   0  0  0  0  0  0  0  0  0  0  0  0
    6.2478    2.0554    2.3321 H   0  0  0  0  0  0  0  0  0  0  0  0
    5.3328    3.0335    1.1226 H   0  0  0  0  0  0  0  0  0  0  0  0
    2.5186    1.5183    1.8082 C   0  0  0  0  0  0  0  0  0  0  0  0
    1.5139    1.0677    1.9482 H   0  0  0  0  0  0  0  0  0  0  0  0
    2.3940    2.5926    1.5602 H   0  0  0  0  0  0  0  0  0  0  0  0
    3.0814    1.4274    2.7571 H   0  0  0  0  0  0  0  0  0  0  0  0
  1 26  2  0  0  0  0
  2 48  2  0  0  0  0
  4 24  1  0  0  0  0
  4 29  1  0  0  0  0
  5 24  1  0  0  0  0
  5 33  1  0  0  0  0
  6 26  1  0  0  0  0
  6 27  1  0  0  0  0
  7 23  1  0  0  0  0
  7 27  1  0  0  0  0
  9 45  1  0  0  0  0
  9 46  1  0  0  0  0
 10 48  1  0  0  0  0
 10 46  1  0  0  0  0
 11 49  1  0  0  0  0
 11 59  1  0  0  0  0
 12 49  1  0  0  0  0
 12 63  1  0  0  0  0
 13  3  1  0  0  0  0
 14 13  2  0  0  0  0
 15 14  1  0  0  0  0
 16 14  1  0  0  0  0
 17 16  1  0  0  0  0
 18 16  2  0  0  0  0
 18 20  1  0  0  0  0
 19 18  1  0  0  0  0
 20 22  2  0  0  0  0
 21 20  1  0  0  0  0
 22 13  1  0  0  0  0
 22  8  1  0  0  0  0
 23  3  1  1  0  0  0
 23  4  1  0  0  0  0
 24 25  1  1  0  0  0
 26  5  1  0  0  0  0
 27 28  1  1  0  0  0
 27 24  1  0  0  0  0
 29 30  1  0  0  0  0
 29 31  1  0  0  0  0
 32 29  1  0  0  0  0
 33 35  1  0  0  0  0
 34 33  1  0  0  0  0
 36 33  1  0  0  0  0
 37 39  1  0  0  0  0
 37  6  1  0  0  0  0
 38 37  1  0  0  0  0
 40 37  1  0  0  0  0
 41 44  1  0  0  0  0
 41  7  1  0  0  0  0
 42 41  1  0  0  0  0
 43 41  1  0  0  0  0
 45  8  1  1  0  0  0
 45 12  1  0  0  0  0
 46 47  1  1  0  0  0
 46 49  1  0  0  0  0
 48 11  1  0  0  0  0
 49 50  1  1  0  0  0
 51 52  1  0  0  0  0
 51  9  1  0  0  0  0
 53 51  1  0  0  0  0
 54 51  1  0  0  0  0
 55 58  1  0  0  0  0
 55 10  1  0  0  0  0
 56 55  1  0  0  0  0
 57 55  1  0  0  0  0
 59 61  1  0  0  0  0
 60 59  1  0  0  0  0
 62 59  1  0  0  0  0
 63 64  1  0  0  0  0
 63 66  1  0  0  0  0
 65 63  1  0  0  0  0
M  END
