1,14
 OpenBabel05122313053D

 23 25  0  0  1  0  0  0  0  0999 V2000
   -0.9369    0.5536   -0.0807 N   0  0  0  0  0  2  0  0  0  0  0  0
   -3.3356    0.5959    0.1358 C   0  0  0  0  0  0  0  0  0  0  0  0
   -2.1072   -0.1086   -0.1231 C   0  0  0  0  0  0  0  0  0  0  0  0
   -0.9508    1.9318   -0.0351 C   0  0  1  0  0  3  0  0  0  0  0  0
    0.2178    2.7014   -0.2575 C   0  0  0  0  0  0  0  0  0  0  0  0
    1.1373    2.1827   -0.5546 H   0  0  0  0  0  0  0  0  0  0  0  0
   -2.2414    4.0178    0.2852 C   0  0  0  0  0  0  0  0  0  0  0  0
   -3.2118    4.4948    0.4805 H   0  0  0  0  0  0  0  0  0  0  0  0
   -2.2080    2.5997    0.1931 C   0  0  0  0  0  0  0  0  0  0  0  0
    0.1462    4.0876   -0.1948 C   0  0  0  0  0  0  0  0  0  0  0  0
    1.0476    4.6842   -0.3993 H   0  0  0  0  0  0  0  0  0  0  0  0
   -1.0765    4.7483    0.1020 C   0  0  0  0  0  0  0  0  0  0  0  0
   -1.1013    5.8464    0.1580 H   0  0  0  0  0  0  0  0  0  0  0  0
   -0.6972   -1.9365   -0.5398 N   0  0  0  0  0  2  0  0  0  0  0  0
   -1.9825   -1.4730   -0.4171 N   0  0  0  0  0  0  0  0  0  0  0  0
   -3.3581    1.8861    0.3151 N   0  0  0  0  0  0  0  0  0  0  0  0
   -0.7728   -3.1867   -1.0069 C   0  0  0  0  0  3  0  0  0  0  0  0
    0.1424   -3.7538   -1.2073 H   0  0  0  0  0  0  0  0  0  0  0  0
   -2.8756   -2.4496   -0.8122 C   0  0  0  0  0  0  0  0  0  0  0  0
   -3.9522   -2.2678   -0.8076 H   0  0  0  0  0  0  0  0  0  0  0  0
   -2.1295   -3.5535   -1.1881 C   0  0  0  0  0  0  0  0  0  0  0  0
   -2.5166   -4.5078   -1.5585 H   0  0  0  0  0  0  0  0  0  0  0  0
   -4.8474   -0.2537    0.3099 Cl  0  0  0  0  0  0  0  0  0  0  0  0
  1  4  1  0  0  0  0
  2 23  1  0  0  0  0
  2 16  1  0  0  0  0
  3  1  1  0  0  0  0
  3  2  2  0  0  0  0
  4  5  1  6  0  0  0
  4  9  1  0  0  0  0
  5 10  2  0  0  0  0
  6  5  1  0  0  0  0
  7  8  1  0  0  0  0
  9  7  1  0  0  0  0
  9 16  2  0  0  0  0
 10 12  1  0  0  0  0
 11 10  1  0  0  0  0
 12 13  1  0  0  0  0
 12  7  2  0  0  0  0
 14 15  1  0  0  0  0
 15  3  1  0  0  0  0
 17 14  1  0  0  0  0
 18 17  1  0  0  0  0
 19 20  1  0  0  0  0
 19 15  1  0  0  0  0
 21 17  1  0  0  0  0
 21 19  2  0  0  0  0
 22 21  1  0  0  0  0
M  END
