1,55
 OpenBabel05122313053D

 59 60  0  0  1  0  0  0  0  0999 V2000
    1.3367    0.3130   -0.0289 N   0  0  0  0  0  2  0  0  0  0  0  0
    2.7047   -0.0325    0.0919 C   0  0  0  0  0  0  0  0  0  0  0  0
    3.1930   -0.6906    1.2651 C   0  0  0  0  0  0  0  0  0  0  0  0
   -2.6837    0.2633    0.2049 C   0  0  0  0  0  0  0  0  0  0  0  0
    3.6138    0.1444   -0.9989 C   0  0  0  0  0  0  0  0  0  0  0  0
    5.4769   -0.7478    0.3455 C   0  0  0  0  0  0  0  0  0  0  0  0
   -4.8317    0.0199   -0.8908 C   0  0  0  0  0  0  0  0  0  0  0  0
   -5.4434    0.0843   -1.8056 H   0  0  0  0  0  0  0  0  0  0  0  0
    0.8446    1.5873    0.4736 C   0  0  1  0  0  0  0  0  0  0  0  0
    4.5590   -1.0116    1.3741 C   0  0  0  0  0  0  0  0  0  0  0  0
    4.9125   -1.5093    2.2932 H   0  0  0  0  0  0  0  0  0  0  0  0
   -2.8294    0.7333   -2.2795 C   0  0  0  0  0  0  0  0  0  0  0  0
   -3.5507    0.6679   -3.1157 H   0  0  0  0  0  0  0  0  0  0  0  0
   -1.9682    0.0701   -2.5107 H   0  0  0  0  0  0  0  0  0  0  0  0
   -2.4262    1.7667   -2.2515 H   0  0  0  0  0  0  0  0  0  0  0  0
    4.9687   -0.1989   -0.8448 C   0  0  0  0  0  0  0  0  0  0  0  0
    5.6503   -0.0480   -1.6989 H   0  0  0  0  0  0  0  0  0  0  0  0
   -0.6837    1.5397    0.5727 C   0  0  1  0  0  3  0  0  0  0  0  0
   -4.6170   -0.4925    1.4548 C   0  0  0  0  0  0  0  0  0  0  0  0
   -5.0577   -0.8407    2.4033 H   0  0  0  0  0  0  0  0  0  0  0  0
   -5.4319   -0.3954    0.3140 C   0  0  0  0  0  0  0  0  0  0  0  0
   -3.4679    0.3408   -0.9740 C   0  0  0  0  0  0  0  0  0  0  0  0
    6.9452   -1.0558    0.5015 C   0  0  0  0  0  0  0  0  0  0  0  0
    7.1175   -1.8660    1.2378 H   0  0  0  0  0  0  0  0  0  0  0  0
    7.5080   -0.1658    0.8590 H   0  0  0  0  0  0  0  0  0  0  0  0
    7.4040   -1.3615   -0.4603 H   0  0  0  0  0  0  0  0  0  0  0  0
   -3.2468   -0.1738    1.4290 C   0  0  0  0  0  0  0  0  0  0  0  0
   -2.3895   -0.3333    2.6587 C   0  0  0  0  0  0  0  0  0  0  0  0
   -1.4431   -0.8639    2.4261 H   0  0  0  0  0  0  0  0  0  0  0  0
   -2.9232   -0.9018    3.4435 H   0  0  0  0  0  0  0  0  0  0  0  0
   -2.1012    0.6453    3.0984 H   0  0  0  0  0  0  0  0  0  0  0  0
   -6.9028   -0.7247    0.3682 C   0  0  0  0  0  0  0  0  0  0  0  0
   -7.1980   -1.4023   -0.4589 H   0  0  0  0  0  0  0  0  0  0  0  0
   -7.5246    0.1908    0.2698 H   0  0  0  0  0  0  0  0  0  0  0  0
   -7.1773   -1.2124    1.3236 H   0  0  0  0  0  0  0  0  0  0  0  0
   -1.4200    2.7078    1.1633 C   0  0  0  0  0  0  0  0  0  0  0  0
   -2.5021    2.6502    0.9422 H   0  0  0  0  0  0  0  0  0  0  0  0
   -1.0123    3.6648    0.7833 H   0  0  0  0  0  0  0  0  0  0  0  0
   -1.2913    2.7278    2.2656 H   0  0  0  0  0  0  0  0  0  0  0  0
    2.2628   -1.1199    2.3738 C   0  0  0  0  0  0  0  0  0  0  0  0
    2.4975   -2.1532    2.7004 H   0  0  0  0  0  0  0  0  0  0  0  0
    1.2105   -1.0811    2.0317 H   0  0  0  0  0  0  0  0  0  0  0  0
    2.3468   -0.4729    3.2723 H   0  0  0  0  0  0  0  0  0  0  0  0
    3.1342    0.6175   -2.3483 C   0  0  0  0  0  0  0  0  0  0  0  0
    3.8510    0.3287   -3.1413 H   0  0  0  0  0  0  0  0  0  0  0  0
    3.0097    1.7183   -2.4036 H   0  0  0  0  0  0  0  0  0  0  0  0
    2.1448    0.1787   -2.5871 H   0  0  0  0  0  0  0  0  0  0  0  0
    1.3977    1.9536    1.8760 C   0  0  0  0  0  0  0  0  0  0  0  0
    1.0245    1.2600    2.6515 H   0  0  0  0  0  0  0  0  0  0  0  0
    1.1249    2.9869    2.1657 H   0  0  0  0  0  0  0  0  0  0  0  0
    2.5027    1.8860    1.8564 H   0  0  0  0  0  0  0  0  0  0  0  0
    1.2093    2.7740   -0.4973 C   0  0  0  0  0  0  0  0  0  0  0  0
    1.0281    3.7454    0.0112 H   0  0  0  0  0  0  0  0  0  0  0  0
    2.3074    2.7083   -0.6375 H   0  0  0  0  0  0  0  0  0  0  0  0
   -1.2869    0.4876    0.1162 N   0  0  0  0  0  2  0  0  0  0  0  0
    0.4801    2.7421   -1.8371 C   0  0  0  0  0  0  0  0  0  0  0  0
    0.9750    3.3863   -2.5906 H   0  0  0  0  0  0  0  0  0  0  0  0
   -0.5688    3.0919   -1.7428 H   0  0  0  0  0  0  0  0  0  0  0  0
    0.4538    1.7095   -2.2379 H   0  0  0  0  0  0  0  0  0  0  0  0
  1  2  1  0  0  0  0
  2  3  1  0  0  0  0
  3 10  2  0  0  0  0
  3 40  1  0  0  0  0
  4 27  1  0  0  0  0
  5 16  1  0  0  0  0
  5  2  2  0  0  0  0
  6 23  1  0  0  0  0
  6 10  1  0  0  0  0
  7 21  2  0  0  0  0
  8  7  1  0  0  0  0
  9  1  1  6  0  0  0
  9 18  1  0  0  0  0
  9 48  1  0  0  0  0
 10 11  1  0  0  0  0
 12 15  1  0  0  0  0
 12 22  1  0  0  0  0
 13 12  1  0  0  0  0
 14 12  1  0  0  0  0
 16  6  2  0  0  0  0
 17 16  1  0  0  0  0
 18 55  1  6  0  0  0
 18 36  1  0  0  0  0
 19 20  1  0  0  0  0
 21 32  1  0  0  0  0
 21 19  1  0  0  0  0
 22  7  1  0  0  0  0
 22  4  2  0  0  0  0
 23 25  1  0  0  0  0
 23 24  1  0  0  0  0
 26 23  1  0  0  0  0
 27 19  2  0  0  0  0
 27 28  1  0  0  0  0
 28 31  1  0  0  0  0
 28 30  1  0  0  0  0
 29 28  1  0  0  0  0
 32 35  1  0  0  0  0
 33 32  1  0  0  0  0
 34 32  1  0  0  0  0
 36 39  1  0  0  0  0
 37 36  1  0  0  0  0
 38 36  1  0  0  0  0
 40 41  1  0  0  0  0
 40 43  1  0  0  0  0
 42 40  1  0  0  0  0
 44  5  1  0  0  0  0
 45 44  1  0  0  0  0
 46 44  1  0  0  0  0
 47 44  1  0  0  0  0
 48 50  1  0  0  0  0
 48 49  1  0  0  0  0
 51 48  1  0  0  0  0
 52 53  1  0  0  0  0
 52  9  1  0  0  0  0
 54 52  1  0  0  0  0
 55  4  1  0  0  0  0
 56 58  1  0  0  0  0
 56 52  1  0  0  0  0
 57 56  1  0  0  0  0
 59 56  1  0  0  0  0
M  END
