1,2
 OpenBabel05122313053D

 54 57  0  0  0  0  0  0  0  0999 V2000
   -1.4473    0.8571   -0.1647 N   0  0  0  0  0  2  0  0  0  0  0  0
    1.4473    0.8573    0.1645 N   0  0  0  0  0  2  0  0  0  0  0  0
   -4.8743   -3.2404   -0.5360 C   0  0  0  0  0  0  0  0  0  0  0  0
   -5.8958   -3.6379   -0.3957 H   0  0  0  0  0  0  0  0  0  0  0  0
   -4.1570   -3.9442   -0.0625 H   0  0  0  0  0  0  0  0  0  0  0  0
   -4.6431   -3.2194   -1.6209 H   0  0  0  0  0  0  0  0  0  0  0  0
   -4.7634   -1.8830    0.0552 C   0  0  0  0  0  0  0  0  0  0  0  0
   -5.6152   -1.1019    0.8210 C   0  0  0  0  0  0  0  0  0  0  0  0
   -6.6249   -1.3785    1.1429 H   0  0  0  0  0  0  0  0  0  0  0  0
   -4.9190    0.1080    1.0949 C   0  0  0  0  0  0  0  0  0  0  0  0
   -5.2698    0.9706    1.6722 H   0  0  0  0  0  0  0  0  0  0  0  0
   -3.6773    0.0030    0.4737 C   0  0  0  0  0  0  0  0  0  0  0  0
   -3.5940   -1.2180   -0.1564 O   0  0  0  0  0  0  0  0  0  0  0  0
   -2.5942    0.9406    0.4542 C   0  0  0  0  0  3  0  0  0  0  0  0
   -2.7567    1.8720    1.0253 H   0  0  0  0  0  0  0  0  0  0  0  0
   -1.1356   -0.1832   -1.0900 C   0  0  0  0  0  0  0  0  0  0  0  0
   -1.6499   -0.1123   -2.3946 C   0  0  0  0  0  0  0  0  0  0  0  0
   -2.3157    0.7208   -2.6610 H   0  0  0  0  0  0  0  0  0  0  0  0
   -1.2832   -1.0911   -3.3260 C   0  0  0  0  0  0  0  0  0  0  0  0
   -1.6761   -1.0422   -4.3527 H   0  0  0  0  0  0  0  0  0  0  0  0
   -0.3991   -2.1147   -2.9602 C   0  0  0  0  0  0  0  0  0  0  0  0
   -0.0957   -2.8671   -3.7050 H   0  0  0  0  0  0  0  0  0  0  0  0
    0.1326   -2.1929   -1.6562 C   0  0  0  0  0  0  0  0  0  0  0  0
    1.1020   -3.2937   -1.3023 C   0  0  0  0  0  0  0  0  0  0  0  0
    1.7525   -3.0010   -0.4568 H   0  0  0  0  0  0  0  0  0  0  0  0
    1.7426   -3.5488   -2.1697 H   0  0  0  0  0  0  0  0  0  0  0  0
    0.5693   -4.2237   -1.0092 H   0  0  0  0  0  0  0  0  0  0  0  0
   -0.2545   -1.2209   -0.7010 C   0  0  0  0  0  0  0  0  0  0  0  0
    0.2547   -1.2208    0.7012 C   0  0  0  0  0  0  0  0  0  0  0  0
   -0.1324   -2.1926    1.6566 C   0  0  0  0  0  0  0  0  0  0  0  0
   -1.1017   -3.2936    1.3026 C   0  0  0  0  0  0  0  0  0  0  0  0
   -1.7411   -3.5499    2.1705 H   0  0  0  0  0  0  0  0  0  0  0  0
   -0.5688   -4.2230    1.0080 H   0  0  0  0  0  0  0  0  0  0  0  0
   -1.7532   -3.0004    0.4582 H   0  0  0  0  0  0  0  0  0  0  0  0
    0.3992   -2.1142    2.9605 C   0  0  0  0  0  0  0  0  0  0  0  0
    0.0959   -2.8664    3.7055 H   0  0  0  0  0  0  0  0  0  0  0  0
    1.2832   -1.0903    3.3262 C   0  0  0  0  0  0  0  0  0  0  0  0
    1.6761   -1.0413    4.3530 H   0  0  0  0  0  0  0  0  0  0  0  0
    1.6498   -0.1117    2.3946 C   0  0  0  0  0  0  0  0  0  0  0  0
    2.3155    0.7215    2.6610 H   0  0  0  0  0  0  0  0  0  0  0  0
    1.1356   -0.1829    1.0900 C   0  0  0  0  0  0  0  0  0  0  0  0
    2.5942    0.9407   -0.4545 C   0  0  0  0  0  3  0  0  0  0  0  0
    2.7566    1.8719   -1.0258 H   0  0  0  0  0  0  0  0  0  0  0  0
    3.6772    0.0031   -0.4739 C   0  0  0  0  0  0  0  0  0  0  0  0
    4.9188    0.1079   -1.0953 C   0  0  0  0  0  0  0  0  0  0  0  0
    5.2696    0.9704   -1.6728 H   0  0  0  0  0  0  0  0  0  0  0  0
    5.6151   -1.1020   -0.8212 C   0  0  0  0  0  0  0  0  0  0  0  0
    6.6247   -1.3787   -1.1432 H   0  0  0  0  0  0  0  0  0  0  0  0
    4.7634   -1.8829   -0.0551 C   0  0  0  0  0  0  0  0  0  0  0  0
    4.8743   -3.2402    0.5363 C   0  0  0  0  0  0  0  0  0  0  0  0
    5.8958   -3.6377    0.3961 H   0  0  0  0  0  0  0  0  0  0  0  0
    4.1570   -3.9441    0.0629 H   0  0  0  0  0  0  0  0  0  0  0  0
    4.6430   -3.2190    1.6212 H   0  0  0  0  0  0  0  0  0  0  0  0
    3.5939   -1.2179    0.1565 O   0  0  0  0  0  0  0  0  0  0  0  0
  1 14  1  0  0  0  0
  2 41  1  0  0  0  0
  3  4  1  0  0  0  0
  3  5  1  0  0  0  0
  3  7  1  0  0  0  0
  6  3  1  0  0  0  0
  7  8  2  0  0  0  0
  8 10  1  0  0  0  0
  8  9  1  0  0  0  0
 10 11  1  0  0  0  0
 12 10  2  0  0  0  0
 13  7  1  0  0  0  0
 13 12  1  0  0  0  0
 14 12  1  0  0  0  0
 14 15  1  0  0  0  0
 16 28  1  0  0  0  0
 16  1  1  0  0  0  0
 17 16  2  0  0  0  0
 18 17  1  0  0  0  0
 19 21  2  0  0  0  0
 19 17  1  0  0  0  0
 20 19  1  0  0  0  0
 21 23  1  0  0  0  0
 22 21  1  0  0  0  0
 23 24  1  0  0  0  0
 23 28  2  0  0  0  0
 24 27  1  0  0  0  0
 24 25  1  0  0  0  0
 26 24  1  0  0  0  0
 28 29  1  0  0  0  0
 29 41  2  0  0  0  0
 29 30  1  0  0  0  0
 30 35  2  0  0  0  0
 31 30  1  0  0  0  0
 31 32  1  0  0  0  0
 33 31  1  0  0  0  0
 34 31  1  0  0  0  0
 35 37  1  0  0  0  0
 35 36  1  0  0  0  0
 37 38  1  0  0  0  0
 39 40  1  0  0  0  0
 39 37  2  0  0  0  0
 41 39  1  0  0  0  0
 42  2  1  0  0  0  0
 43 42  1  0  0  0  0
 44 42  1  0  0  0  0
 44 54  1  0  0  0  0
 45 47  1  0  0  0  0
 45 44  2  0  0  0  0
 46 45  1  0  0  0  0
 47 49  2  0  0  0  0
 48 47  1  0  0  0  0
 49 54  1  0  0  0  0
 49 50  1  0  0  0  0
 50 53  1  0  0  0  0
 51 50  1  0  0  0  0
 52 50  1  0  0  0  0
M  END
