36,37
 OpenBabel05122313053D

 37 40  0  0  1  0  0  0  0  0999 V2000
    0.9137   -0.8025   -0.5941 C   0  0  0  0  0  3  0  0  0  0  0  0
    0.8732   -1.8925   -0.7530 H   0  0  0  0  0  0  0  0  0  0  0  0
   -3.9097    1.1056    0.5250 C   0  0  0  0  0  3  0  0  0  0  0  0
   -4.6360    0.2797    0.5970 H   0  0  0  0  0  0  0  0  0  0  0  0
   -4.2924    2.4521    0.5762 C   0  0  0  0  0  0  0  0  0  0  0  0
   -5.3456    2.7217    0.7382 H   0  0  0  0  0  0  0  0  0  0  0  0
   -3.3045    3.4333    0.4001 C   0  0  0  0  0  0  0  0  0  0  0  0
   -3.5680    4.5014    0.4202 H   0  0  0  0  0  0  0  0  0  0  0  0
   -1.9797    3.0414    0.1718 C   0  0  0  0  0  0  0  0  0  0  0  0
   -1.1994    3.7926   -0.0120 H   0  0  0  0  0  0  0  0  0  0  0  0
   -1.6711    1.6674    0.1497 C   0  0  0  0  0  0  0  0  0  0  0  0
   -0.3115    1.1243   -0.1090 C   0  0  0  0  0  0  0  0  0  0  0  0
    0.8672    1.8905   -0.0279 C   0  0  0  0  0  0  0  0  0  0  0  0
    0.8234    2.9552    0.2451 H   0  0  0  0  0  0  0  0  0  0  0  0
    2.1300   -0.1120   -0.5494 C   0  0  0  0  0  0  0  0  0  0  0  0
    2.1048    1.2757   -0.2524 C   0  0  0  0  0  0  0  0  0  0  0  0
    3.4768   -0.7389   -0.7718 C   0  0  1  0  0  0  0  0  0  0  0  0
    3.4077   -1.8166   -1.0189 H   0  0  0  0  0  0  0  0  0  0  0  0
    4.2812    0.2182   -1.7029 C   0  0  0  0  0  0  0  0  0  0  0  0
    5.1735   -0.2649   -2.1389 H   0  0  0  0  0  0  0  0  0  0  0  0
    3.7136    0.7235   -2.5104 H   0  0  0  0  0  0  0  0  0  0  0  0
    4.6001    1.0383   -0.4236 C   0  0  1  0  0  0  0  0  0  0  0  0
    5.5749    1.5640   -0.3617 H   0  0  0  0  0  0  0  0  0  0  0  0
    3.4330    1.9975   -0.1412 C   0  0  0  0  0  0  0  0  0  0  0  0
    3.5226    2.4490    0.8708 H   0  0  0  0  0  0  0  0  0  0  0  0
    3.4554    2.8483   -0.8571 H   0  0  0  0  0  0  0  0  0  0  0  0
    4.4544   -0.2997    0.3942 C   0  0  0  0  0  0  0  0  0  0  0  0
    3.9108   -0.2451    1.8206 C   0  0  0  0  0  0  0  0  0  0  0  0
    2.9541    0.3027    1.9112 H   0  0  0  0  0  0  0  0  0  0  0  0
    4.6469    0.2404    2.4945 H   0  0  0  0  0  0  0  0  0  0  0  0
    3.7334   -1.2708    2.2044 H   0  0  0  0  0  0  0  0  0  0  0  0
    5.7489   -1.1212    0.3867 C   0  0  0  0  0  0  0  0  0  0  0  0
    6.5009   -0.6554    1.0566 H   0  0  0  0  0  0  0  0  0  0  0  0
    6.2055   -1.2094   -0.6176 H   0  0  0  0  0  0  0  0  0  0  0  0
    5.5573   -2.1477    0.7608 H   0  0  0  0  0  0  0  0  0  0  0  0
   -0.2657   -0.1934   -0.4024 N   0  0  0  0  0  2  0  0  0  0  0  0
   -2.6331    0.7376    0.3456 N   0  0  0  0  0  2  0  0  0  0  0  0
  1 15  1  0  0  0  0
  1 36  1  0  0  0  0
  2  1  1  0  0  0  0
  3  5  1  0  0  0  0
  3  4  1  0  0  0  0
  5  6  1  0  0  0  0
  7  8  1  0  0  0  0
  7  5  2  0  0  0  0
  9  7  1  0  0  0  0
 10  9  1  0  0  0  0
 11  9  2  0  0  0  0
 11 37  1  0  0  0  0
 12 13  2  0  0  0  0
 12 11  1  0  0  0  0
 13 14  1  0  0  0  0
 15 16  2  0  0  0  0
 16 24  1  0  0  0  0
 16 13  1  0  0  0  0
 17 18  1  6  0  0  0
 17 15  1  0  0  0  0
 17 27  1  0  0  0  0
 19 17  1  0  0  0  0
 19 22  1  0  0  0  0
 20 19  1  0  0  0  0
 21 19  1  0  0  0  0
 22 23  1  1  0  0  0
 22 24  1  0  0  0  0
 22 27  1  0  0  0  0
 24 25  1  0  0  0  0
 26 24  1  0  0  0  0
 27 28  1  0  0  0  0
 28 29  1  0  0  0  0
 28 31  1  0  0  0  0
 28 30  1  0  0  0  0
 32 27  1  0  0  0  0
 32 35  1  0  0  0  0
 32 33  1  0  0  0  0
 34 32  1  0  0  0  0
 36 12  1  0  0  0  0
 37  3  1  0  0  0  0
M  END
