1,3
 OpenBabel05122313053D

 34 35  0  0  0  0  0  0  0  0999 V2000
   -2.8781   -0.3653   -0.0398 N   0  0  0  0  0  2  0  0  0  0  0  0
   -0.4610   -0.8817   -1.3261 H   0  0  0  0  0  0  0  0  0  0  0  0
   -0.2131   -0.6091   -0.3641 N   0  0  0  0  0  0  0  0  0  0  0  0
    5.4486   -0.3079    0.0286 N   0  0  0  0  0  0  0  0  0  0  0  0
   -4.1868   -0.2457   -0.3088 C   0  0  0  0  0  3  0  0  0  0  0  0
   -4.5102    0.7464   -0.6653 H   0  0  0  0  0  0  0  0  0  0  0  0
   -5.0680   -1.3242   -0.1624 C   0  0  0  0  0  0  0  0  0  0  0  0
   -6.1375   -1.1999   -0.3839 H   0  0  0  0  0  0  0  0  0  0  0  0
   -4.5482   -2.5577    0.2600 C   0  0  0  0  0  0  0  0  0  0  0  0
   -5.2101   -3.4285    0.3818 H   0  0  0  0  0  0  0  0  0  0  0  0
   -3.1730   -2.6786    0.5084 C   0  0  0  0  0  0  0  0  0  0  0  0
   -2.7321   -3.6380    0.8167 H   0  0  0  0  0  0  0  0  0  0  0  0
   -2.3580   -1.5469    0.3497 C   0  0  0  0  0  0  0  0  0  0  0  0
   -0.8653   -1.5384    0.5896 C   0  0  0  0  0  0  0  0  0  0  0  0
   -0.6740   -1.1332    1.6087 H   0  0  0  0  0  0  0  0  0  0  0  0
   -0.4470   -2.5672    0.5340 H   0  0  0  0  0  0  0  0  0  0  0  0
    1.2276   -0.5363   -0.2601 C   0  0  0  0  0  0  0  0  0  0  0  0
    2.0457   -1.1849   -1.1994 C   0  0  0  0  0  0  0  0  0  0  0  0
    1.5869   -1.7566   -2.0230 H   0  0  0  0  0  0  0  0  0  0  0  0
    3.4399   -1.1042   -1.1213 C   0  0  0  0  0  0  0  0  0  0  0  0
    4.0389   -1.6096   -1.8891 H   0  0  0  0  0  0  0  0  0  0  0  0
    4.0703   -0.3833   -0.0687 C   0  0  0  0  0  0  0  0  0  0  0  0
    3.2234    0.2650    0.8760 C   0  0  0  0  0  0  0  0  0  0  0  0
    3.6549    0.8540    1.6950 H   0  0  0  0  0  0  0  0  0  0  0  0
    1.8325    0.1935    0.7784 C   0  0  0  0  0  0  0  0  0  0  0  0
    1.1945    0.7340    1.4970 H   0  0  0  0  0  0  0  0  0  0  0  0
    6.2773   -0.9289   -0.9818 C   0  0  0  0  0  0  0  0  0  0  0  0
    6.1007   -2.0264   -1.0487 H   0  0  0  0  0  0  0  0  0  0  0  0
    7.3419   -0.7770   -0.7278 H   0  0  0  0  0  0  0  0  0  0  0  0
    6.1049   -0.5023   -1.9978 H   0  0  0  0  0  0  0  0  0  0  0  0
    6.0561    0.4881    1.0746 C   0  0  0  0  0  0  0  0  0  0  0  0
    5.7831    1.5666    1.0041 H   0  0  0  0  0  0  0  0  0  0  0  0
    7.1560    0.4116    1.0004 H   0  0  0  0  0  0  0  0  0  0  0  0
    5.7616    0.1367    2.0890 H   0  0  0  0  0  0  0  0  0  0  0  0
  1 13  1  0  0  0  0
  2  3  1  0  0  0  0
  3 17  1  0  0  0  0
  3 14  1  0  0  0  0
  4 31  1  0  0  0  0
  5  7  1  0  0  0  0
  5  1  1  0  0  0  0
  6  5  1  0  0  0  0
  7  9  2  0  0  0  0
  8  7  1  0  0  0  0
  9 10  1  0  0  0  0
  9 11  1  0  0  0  0
 11 12  1  0  0  0  0
 13 11  2  0  0  0  0
 13 14  1  0  0  0  0
 14 15  1  0  0  0  0
 16 14  1  0  0  0  0
 17 25  1  0  0  0  0
 18 20  1  0  0  0  0
 18 17  2  0  0  0  0
 19 18  1  0  0  0  0
 20 22  2  0  0  0  0
 21 20  1  0  0  0  0
 22  4  1  0  0  0  0
 22 23  1  0  0  0  0
 23 24  1  0  0  0  0
 25 23  2  0  0  0  0
 25 26  1  0  0  0  0
 27 29  1  0  0  0  0
 27  4  1  0  0  0  0
 28 27  1  0  0  0  0
 30 27  1  0  0  0  0
 31 34  1  0  0  0  0
 32 31  1  0  0  0  0
 33 31  1  0  0  0  0
M  END
