1,3
 OpenBabel05122313053D

 55 57  0  0  1  0  0  0  0  0999 V2000
   -0.8976   -0.9663    0.0001 N   0  0  0  0  0  2  0  0  0  0  0  0
   -1.1502    0.4030    0.0001 N   0  0  0  0  0  0  0  0  0  0  0  0
    1.1240    0.6002   -0.0000 N   0  0  0  0  0  2  0  0  0  0  0  0
   -7.3686   -0.8766   -0.0001 O   0  0  0  0  0  0  0  0  0  0  0  0
   -7.4422    1.3918   -0.0000 O   0  0  0  0  0  0  0  0  0  0  0  0
   -2.0560   -1.6174    0.0001 C   0  0  0  0  0  0  0  0  0  0  0  0
   -2.0349   -2.7146    0.0001 H   0  0  0  0  0  0  0  0  0  0  0  0
   -3.1319   -0.6758    0.0000 C   0  0  0  0  0  0  0  0  0  0  0  0
   -4.5324   -0.8005   -0.0000 C   0  0  0  0  0  3  0  0  0  0  0  0
   -5.0325   -1.7795   -0.0000 H   0  0  0  0  0  0  0  0  0  0  0  0
   -5.3097    0.3658   -0.0000 C   0  0  0  0  0  0  0  0  0  0  0  0
   -4.6934    1.6453   -0.0000 C   0  0  0  0  0  0  0  0  0  0  0  0
   -5.3355    2.5362   -0.0000 H   0  0  0  0  0  0  0  0  0  0  0  0
   -3.3036    1.7951    0.0000 C   0  0  0  0  0  0  0  0  0  0  0  0
   -2.8610    2.7970    0.0000 H   0  0  0  0  0  0  0  0  0  0  0  0
   -2.5255    0.6229    0.0000 C   0  0  0  0  0  0  0  0  0  0  0  0
   -0.0289    1.2309    0.0000 C   0  0  1  0  0  3  0  0  0  0  0  0
   -0.2095    2.7110   -0.0001 C   0  0  0  0  0  0  0  0  0  0  0  0
    0.7817    3.1967   -0.0002 H   0  0  0  0  0  0  0  0  0  0  0  0
   -0.7694    3.0413    0.8983 H   0  0  0  0  0  0  0  0  0  0  0  0
   -0.7694    3.0412   -0.8985 H   0  0  0  0  0  0  0  0  0  0  0  0
    2.3552    1.3424   -0.0001 C   0  0  0  0  0  0  0  0  0  0  0  0
    2.9503    1.6663   -1.2424 C   0  0  0  0  0  0  0  0  0  0  0  0
    4.1501    2.4002   -1.2133 C   0  0  0  0  0  0  0  0  0  0  0  0
    4.6360    2.6711   -2.1630 H   0  0  0  0  0  0  0  0  0  0  0  0
    4.7410    2.7747   -0.0002 C   0  0  0  0  0  0  0  0  0  0  0  0
    5.6802    3.3482   -0.0003 H   0  0  0  0  0  0  0  0  0  0  0  0
    4.1501    2.4004    1.2129 C   0  0  0  0  0  0  0  0  0  0  0  0
    4.6361    2.6715    2.1625 H   0  0  0  0  0  0  0  0  0  0  0  0
    2.9503    1.6665    1.2422 C   0  0  0  0  0  0  0  0  0  0  0  0
    2.3543    1.2063   -2.5663 C   0  0  0  0  0  0  0  0  0  0  0  0
    1.4243    0.6455   -2.3409 H   0  0  0  0  0  0  0  0  0  0  0  0
    3.3018    0.2180   -3.2686 C   0  0  0  0  0  0  0  0  0  0  0  0
    4.2558    0.7079   -3.5542 H   0  0  0  0  0  0  0  0  0  0  0  0
    2.8338   -0.1768   -4.1934 H   0  0  0  0  0  0  0  0  0  0  0  0
    3.5348   -0.6333   -2.5988 H   0  0  0  0  0  0  0  0  0  0  0  0
    1.9794    2.3917   -3.4707 C   0  0  0  0  0  0  0  0  0  0  0  0
    1.2713    3.0839   -2.9694 H   0  0  0  0  0  0  0  0  0  0  0  0
    1.5043    2.0341   -4.4070 H   0  0  0  0  0  0  0  0  0  0  0  0
    2.8736    2.9831   -3.7572 H   0  0  0  0  0  0  0  0  0  0  0  0
    2.3544    1.2068    2.5662 C   0  0  0  0  0  0  0  0  0  0  0  0
    1.4242    0.6463    2.3410 H   0  0  0  0  0  0  0  0  0  0  0  0
    3.3018    0.2183    3.2683 C   0  0  0  0  0  0  0  0  0  0  0  0
    3.5345   -0.6331    2.5986 H   0  0  0  0  0  0  0  0  0  0  0  0
    2.8338   -0.1764    4.1933 H   0  0  0  0  0  0  0  0  0  0  0  0
    4.2559    0.7080    3.5538 H   0  0  0  0  0  0  0  0  0  0  0  0
    1.9799    2.3923    3.4707 C   0  0  0  0  0  0  0  0  0  0  0  0
    1.5049    2.0349    4.4070 H   0  0  0  0  0  0  0  0  0  0  0  0
    1.2720    3.0847    2.9695 H   0  0  0  0  0  0  0  0  0  0  0  0
    2.8744    2.9834    3.7570 H   0  0  0  0  0  0  0  0  0  0  0  0
   -6.7962    0.1994   -0.0001 C   0  0  0  0  0  0  0  0  0  0  0  0
   -8.8727    1.3102   -0.0000 C   0  0  0  0  0  0  0  0  0  0  0  0
   -9.2356    0.7709   -0.8980 H   0  0  0  0  0  0  0  0  0  0  0  0
   -9.2391    2.3519    0.0004 H   0  0  0  0  0  0  0  0  0  0  0  0
   -9.2356    0.7701    0.8975 H   0  0  0  0  0  0  0  0  0  0  0  0
  2  1  1  0  0  0  0
  4 51  2  0  0  0  0
  5 52  1  0  0  0  0
  6  1  1  0  0  0  0
  7  6  1  0  0  0  0
  8 16  1  0  0  0  0
  8  6  2  0  0  0  0
  9  8  1  0  0  0  0
 10  9  1  0  0  0  0
 11  9  1  0  0  0  0
 11 12  2  0  0  0  0
 12 14  1  0  0  0  0
 13 12  1  0  0  0  0
 14 15  1  0  0  0  0
 14 16  2  0  0  0  0
 16  2  1  0  0  0  0
 17  3  1  6  0  0  0
 17  2  1  0  0  0  0
 18 17  1  0  0  0  0
 18 20  1  0  0  0  0
 19 18  1  0  0  0  0
 21 18  1  0  0  0  0
 22  3  1  0  0  0  0
 22 30  1  0  0  0  0
 23 24  1  0  0  0  0
 23 22  2  0  0  0  0
 24 26  2  0  0  0  0
 25 24  1  0  0  0  0
 26 28  1  0  0  0  0
 27 26  1  0  0  0  0
 28 30  2  0  0  0  0
 28 29  1  0  0  0  0
 30 41  1  0  0  0  0
 31 32  1  0  0  0  0
 31 23  1  0  0  0  0
 33 36  1  0  0  0  0
 33 31  1  0  0  0  0
 34 33  1  0  0  0  0
 35 33  1  0  0  0  0
 37 38  1  0  0  0  0
 37 31  1  0  0  0  0
 39 37  1  0  0  0  0
 40 37  1  0  0  0  0
 41 43  1  0  0  0  0
 41 47  1  0  0  0  0
 42 41  1  0  0  0  0
 43 46  1  0  0  0  0
 43 45  1  0  0  0  0
 44 43  1  0  0  0  0
 47 50  1  0  0  0  0
 47 48  1  0  0  0  0
 49 47  1  0  0  0  0
 51 11  1  0  0  0  0
 51  5  1  0  0  0  0
 52 54  1  0  0  0  0
 52 55  1  0  0  0  0
 53 52  1  0  0  0  0
M  END
