1,2
 OpenBabel05122313053D

 74 80  0  0  0  0  0  0  0  0999 V2000
    1.3150   -0.1881    0.0747 N   0  0  0  0  0  2  0  0  0  0  0  0
   -1.3117   -0.2071   -0.0243 N   0  0  0  0  0  2  0  0  0  0  0  0
    0.7309    0.9831    0.0067 C   0  0  0  0  0  0  0  0  0  0  0  0
    1.1884    2.3682   -0.1380 C   0  0  0  0  0  0  0  0  0  0  0  0
    2.4235    3.0099   -0.2016 C   0  0  0  0  0  0  0  0  0  0  0  0
    3.3628    2.4478   -0.1020 H   0  0  0  0  0  0  0  0  0  0  0  0
    2.4409    4.4198   -0.4006 C   0  0  0  0  0  0  0  0  0  0  0  0
    3.4144    4.9302   -0.4494 H   0  0  0  0  0  0  0  0  0  0  0  0
    1.2739    5.1735   -0.5372 C   0  0  0  0  0  0  0  0  0  0  0  0
    1.3369    6.2618   -0.6911 H   0  0  0  0  0  0  0  0  0  0  0  0
   -0.0076    4.5433   -0.4868 C   0  0  0  0  0  0  0  0  0  0  0  0
   -1.2885    5.1590   -0.6345 C   0  0  0  0  0  0  0  0  0  0  0  0
   -1.3524    6.2465   -0.7928 H   0  0  0  0  0  0  0  0  0  0  0  0
   -2.4533    4.3912   -0.5866 C   0  0  0  0  0  0  0  0  0  0  0  0
   -3.4263    4.8902   -0.7087 H   0  0  0  0  0  0  0  0  0  0  0  0
   -2.4354    2.9810   -0.3883 C   0  0  0  0  0  0  0  0  0  0  0  0
   -3.3739    2.4100   -0.3602 H   0  0  0  0  0  0  0  0  0  0  0  0
   -1.2016    2.3523   -0.2317 C   0  0  0  0  0  0  0  0  0  0  0  0
   -0.7388    0.9730   -0.0497 C   0  0  0  0  0  0  0  0  0  0  0  0
   -0.0076    3.1428   -0.2813 C   0  0  0  0  0  0  0  0  0  0  0  0
    2.7247   -0.2913    0.1589 C   0  0  0  0  0  0  0  0  0  0  0  0
    3.3558    0.0519    1.3832 C   0  0  0  0  0  0  0  0  0  0  0  0
    4.7555   -0.0792    1.4300 C   0  0  0  0  0  0  0  0  0  0  0  0
    5.2808    0.1689    2.3654 H   0  0  0  0  0  0  0  0  0  0  0  0
    5.4822   -0.5175    0.3121 C   0  0  0  0  0  0  0  0  0  0  0  0
    6.5770   -0.6096    0.3749 H   0  0  0  0  0  0  0  0  0  0  0  0
    4.8213   -0.8548   -0.8777 C   0  0  0  0  0  0  0  0  0  0  0  0
    5.3949   -1.2170   -1.7449 H   0  0  0  0  0  0  0  0  0  0  0  0
    3.4212   -0.7684   -0.9799 C   0  0  0  0  0  0  0  0  0  0  0  0
    2.6743   -1.2040   -2.2228 C   0  0  0  0  0  0  0  0  0  0  0  0
    1.9297   -1.9605   -1.8911 H   0  0  0  0  0  0  0  0  0  0  0  0
    3.3807   -1.7463   -2.8849 H   0  0  0  0  0  0  0  0  0  0  0  0
    1.9659   -0.1073   -3.0476 C   0  0  0  0  0  0  0  0  0  0  0  0
    1.3851    0.5625   -2.3825 H   0  0  0  0  0  0  0  0  0  0  0  0
    2.7337    0.5438   -3.5174 H   0  0  0  0  0  0  0  0  0  0  0  0
    1.0352   -0.6663   -4.1424 C   0  0  0  0  0  0  0  0  0  0  0  0
    0.7367    0.1667   -4.8166 H   0  0  0  0  0  0  0  0  0  0  0  0
    1.6216   -1.3680   -4.7752 H   0  0  0  0  0  0  0  0  0  0  0  0
   -0.2288   -1.3933   -3.6460 C   0  0  0  0  0  0  0  0  0  0  0  0
   -0.6408   -2.0100   -4.4740 H   0  0  0  0  0  0  0  0  0  0  0  0
    0.0520   -2.1235   -2.8542 H   0  0  0  0  0  0  0  0  0  0  0  0
   -1.3478   -0.4942   -3.0920 C   0  0  0  0  0  0  0  0  0  0  0  0
   -1.7687    0.1388   -3.9033 H   0  0  0  0  0  0  0  0  0  0  0  0
   -0.9095    0.2158   -2.3674 H   0  0  0  0  0  0  0  0  0  0  0  0
   -2.4702   -1.3301   -2.4282 C   0  0  0  0  0  0  0  0  0  0  0  0
   -3.1580   -1.7067   -3.2128 H   0  0  0  0  0  0  0  0  0  0  0  0
   -2.0034   -2.2371   -1.9795 H   0  0  0  0  0  0  0  0  0  0  0  0
   -3.3077   -0.7459   -1.3070 C   0  0  0  0  0  0  0  0  0  0  0  0
   -4.7146   -0.7477   -1.3621 C   0  0  0  0  0  0  0  0  0  0  0  0
   -5.2060   -1.0784   -2.2903 H   0  0  0  0  0  0  0  0  0  0  0  0
   -5.4886   -0.3732   -0.2542 C   0  0  0  0  0  0  0  0  0  0  0  0
   -6.5868   -0.3960   -0.3224 H   0  0  0  0  0  0  0  0  0  0  0  0
   -4.8728    0.0044    0.9492 C   0  0  0  0  0  0  0  0  0  0  0  0
   -5.4859    0.2680    1.8251 H   0  0  0  0  0  0  0  0  0  0  0  0
   -3.4717    0.0549    1.0595 C   0  0  0  0  0  0  0  0  0  0  0  0
   -2.7247   -0.3013   -0.0930 C   0  0  0  0  0  0  0  0  0  0  0  0
   -2.7815    0.4661    2.3470 C   0  0  0  0  0  0  0  0  0  0  0  0
   -3.5500    0.8506    3.0494 H   0  0  0  0  0  0  0  0  0  0  0  0
   -2.1190    1.3347    2.1402 H   0  0  0  0  0  0  0  0  0  0  0  0
   -1.9578   -0.6372    3.0501 C   0  0  0  0  0  0  0  0  0  0  0  0
   -2.6597   -1.3743    3.4915 H   0  0  0  0  0  0  0  0  0  0  0  0
   -1.3783   -1.2192    2.3041 H   0  0  0  0  0  0  0  0  0  0  0  0
   -1.0101   -0.1020    4.1391 C   0  0  0  0  0  0  0  0  0  0  0  0
   -1.5821    0.5741    4.8126 H   0  0  0  0  0  0  0  0  0  0  0  0
   -0.6832   -0.9521    4.7758 H   0  0  0  0  0  0  0  0  0  0  0  0
    0.2408    0.6441    3.6331 C   0  0  0  0  0  0  0  0  0  0  0  0
   -0.0522    1.3521    2.8221 H   0  0  0  0  0  0  0  0  0  0  0  0
    0.6284    1.2957    4.4474 H   0  0  0  0  0  0  0  0  0  0  0  0
    1.3900   -0.2393    3.1203 C   0  0  0  0  0  0  0  0  0  0  0  0
    1.0093   -0.9378    2.3470 H   0  0  0  0  0  0  0  0  0  0  0  0
    1.7537   -0.8983    3.9367 H   0  0  0  0  0  0  0  0  0  0  0  0
    2.5701    0.6002    2.5627 C   0  0  0  0  0  0  0  0  0  0  0  0
    2.1725    1.5969    2.2661 H   0  0  0  0  0  0  0  0  0  0  0  0
    3.2894    0.8195    3.3779 H   0  0  0  0  0  0  0  0  0  0  0  0
  1 21  1  0  0  0  0
  3  1  1  0  0  0  0
  4  3  1  0  0  0  0
  5  4  1  0  0  0  0
  5  6  1  0  0  0  0
  7  5  2  0  0  0  0
  8  7  1  0  0  0  0
  9 11  2  0  0  0  0
  9  7  1  0  0  0  0
 10  9  1  0  0  0  0
 11 20  1  0  0  0  0
 12 14  2  0  0  0  0
 12 11  1  0  0  0  0
 13 12  1  0  0  0  0
 14 16  1  0  0  0  0
 15 14  1  0  0  0  0
 16 17  1  0  0  0  0
 16 18  2  0  0  0  0
 18 19  1  0  0  0  0
 19  2  1  0  0  0  0
 19  3  2  0  0  0  0
 20 18  1  0  0  0  0
 20  4  2  0  0  0  0
 21 22  1  0  0  0  0
 22 23  2  0  0  0  0
 22 72  1  0  0  0  0
 23 24  1  0  0  0  0
 25 26  1  0  0  0  0
 25 23  1  0  0  0  0
 27 25  2  0  0  0  0
 28 27  1  0  0  0  0
 29 27  1  0  0  0  0
 29 21  2  0  0  0  0
 30 31  1  0  0  0  0
 30 29  1  0  0  0  0
 32 30  1  0  0  0  0
 33 34  1  0  0  0  0
 33 30  1  0  0  0  0
 35 33  1  0  0  0  0
 36 39  1  0  0  0  0
 36 33  1  0  0  0  0
 37 36  1  0  0  0  0
 38 36  1  0  0  0  0
 39 42  1  0  0  0  0
 39 41  1  0  0  0  0
 40 39  1  0  0  0  0
 42 45  1  0  0  0  0
 42 44  1  0  0  0  0
 43 42  1  0  0  0  0
 45 47  1  0  0  0  0
 45 48  1  0  0  0  0
 46 45  1  0  0  0  0
 48 56  1  0  0  0  0
 49 48  2  0  0  0  0
 49 51  1  0  0  0  0
 50 49  1  0  0  0  0
 51 53  2  0  0  0  0
 52 51  1  0  0  0  0
 53 55  1  0  0  0  0
 53 54  1  0  0  0  0
 55 57  1  0  0  0  0
 56  2  1  0  0  0  0
 56 55  2  0  0  0  0
 57 58  1  0  0  0  0
 57 60  1  0  0  0  0
 59 57  1  0  0  0  0
 60 61  1  0  0  0  0
 60 63  1  0  0  0  0
 62 60  1  0  0  0  0
 63 65  1  0  0  0  0
 63 64  1  0  0  0  0
 66 63  1  0  0  0  0
 66 68  1  0  0  0  0
 67 66  1  0  0  0  0
 69 66  1  0  0  0  0
 69 71  1  0  0  0  0
 70 69  1  0  0  0  0
 72 69  1  0  0  0  0
 72 74  1  0  0  0  0
 73 72  1  0  0  0  0
M  END
