3,4
 OpenBabel05122313053D

 14 15  0  0  0  0  0  0  0  0999 V2000
   -4.1139   -1.1287    1.4184 S   0  0  0  0  0  0  0  0  0  0  0  0
   -4.1139    1.1287   -1.4184 S   0  0  0  0  0  0  0  0  0  0  0  0
   -1.5736   -0.7956    1.0844 N   0  0  0  0  0  2  0  0  0  0  0  0
   -1.5736    0.7956   -1.0844 N   0  0  0  0  0  2  0  0  0  0  0  0
   -2.7621   -0.4378    0.5735 C   0  0  0  0  0  0  0  0  0  0  0  0
   -3.0129   -1.9283    2.4916 C   0  0  0  0  0  0  0  0  0  0  0  0
   -3.3880   -2.5660    3.3011 H   0  0  0  0  0  0  0  0  0  0  0  0
   -1.7058   -1.6363    2.1594 C   0  0  0  0  0  0  0  0  0  0  0  0
   -0.8042   -2.0068    2.6660 H   0  0  0  0  0  0  0  0  0  0  0  0
   -2.7621    0.4377   -0.5735 C   0  0  0  0  0  0  0  0  0  0  0  0
   -1.7058    1.6362   -2.1595 C   0  0  0  0  0  0  0  0  0  0  0  0
   -0.8043    2.0067   -2.6661 H   0  0  0  0  0  0  0  0  0  0  0  0
   -3.0130    1.9280   -2.4918 C   0  0  0  0  0  0  0  0  0  0  0  0
   -3.3881    2.5656   -3.3014 H   0  0  0  0  0  0  0  0  0  0  0  0
  1  6  1  0  0  0  0
  2 10  1  0  0  0  0
  3  8  1  0  0  0  0
  4 10  1  0  0  0  0
  5  3  1  0  0  0  0
  5  1  1  0  0  0  0
  6  7  1  0  0  0  0
  8  6  2  0  0  0  0
  8  9  1  0  0  0  0
 10  5  2  0  0  0  0
 11  4  1  0  0  0  0
 12 11  1  0  0  0  0
 13 11  2  0  0  0  0
 13  2  1  0  0  0  0
 14 13  1  0  0  0  0
M  END
