3,4
 OpenBabel05122313053D

 26 29  0  0  0  0  0  0  0  0999 V2000
   -1.7142    3.9275    0.2810 S   0  0  0  0  0  0  0  0  0  0  0  0
    1.7155    3.9268   -0.2823 S   0  0  0  0  0  0  0  0  0  0  0  0
   -1.3361    1.3373    0.2654 N   0  0  0  0  0  2  0  0  0  0  0  0
    1.3364    1.3368   -0.2664 N   0  0  0  0  0  2  0  0  0  0  0  0
   -0.7085    2.5064    0.1275 C   0  0  0  0  0  0  0  0  0  0  0  0
   -3.0933    2.8813    0.5539 C   0  0  0  0  0  0  0  0  0  0  0  0
   -4.4253    3.2536    0.7912 C   0  0  0  0  0  0  0  0  0  0  0  0
   -4.7263    4.3102    0.8208 H   0  0  0  0  0  0  0  0  0  0  0  0
   -5.3584    2.2300    0.9908 C   0  0  0  0  0  0  0  0  0  0  0  0
   -6.4099    2.4922    1.1787 H   0  0  0  0  0  0  0  0  0  0  0  0
   -4.9720    0.8695    0.9585 C   0  0  0  0  0  0  0  0  0  0  0  0
   -5.7290    0.0891    1.1238 H   0  0  0  0  0  0  0  0  0  0  0  0
   -3.6491    0.4946    0.7217 C   0  0  0  0  0  0  0  0  0  0  0  0
   -3.3412   -0.5583    0.7005 H   0  0  0  0  0  0  0  0  0  0  0  0
   -2.6901    1.5098    0.5108 C   0  0  0  0  0  0  0  0  0  0  0  0
    0.7093    2.5061   -0.1287 C   0  0  0  0  0  0  0  0  0  0  0  0
    2.6905    1.5087   -0.5120 C   0  0  0  0  0  0  0  0  0  0  0  0
    3.6490    0.4931   -0.7228 C   0  0  0  0  0  0  0  0  0  0  0  0
    3.3408   -0.5596   -0.7016 H   0  0  0  0  0  0  0  0  0  0  0  0
    4.9722    0.8675   -0.9597 C   0  0  0  0  0  0  0  0  0  0  0  0
    5.7288    0.0869   -1.1251 H   0  0  0  0  0  0  0  0  0  0  0  0
    5.3590    2.2279   -0.9921 C   0  0  0  0  0  0  0  0  0  0  0  0
    6.4106    2.4896   -1.1801 H   0  0  0  0  0  0  0  0  0  0  0  0
    4.4263    3.2519   -0.7926 C   0  0  0  0  0  0  0  0  0  0  0  0
    4.7277    4.3084   -0.8222 H   0  0  0  0  0  0  0  0  0  0  0  0
    3.0942    2.8800   -0.5551 C   0  0  0  0  0  0  0  0  0  0  0  0
  1  6  1  0  0  0  0
  2 16  1  0  0  0  0
  3 15  1  0  0  0  0
  4 16  1  0  0  0  0
  5  3  1  0  0  0  0
  5  1  1  0  0  0  0
  6  7  1  0  0  0  0
  7  8  1  0  0  0  0
  7  9  2  0  0  0  0
  9 10  1  0  0  0  0
 11  9  1  0  0  0  0
 11 12  1  0  0  0  0
 13 11  2  0  0  0  0
 14 13  1  0  0  0  0
 15  6  2  0  0  0  0
 15 13  1  0  0  0  0
 16  5  2  0  0  0  0
 17  4  1  0  0  0  0
 18 19  1  0  0  0  0
 18 17  2  0  0  0  0
 20 18  1  0  0  0  0
 21 20  1  0  0  0  0
 22 20  2  0  0  0  0
 22 24  1  0  0  0  0
 23 22  1  0  0  0  0
 24 26  2  0  0  0  0
 25 24  1  0  0  0  0
 26 17  1  0  0  0  0
 26  2  1  0  0  0  0
M  END
