2,3
 OpenBabel05122313053D

 27 28  0  0  1  0  0  0  0  0999 V2000
   -0.3505    2.1475    0.3236 N   0  0  0  0  0  0  0  0  0  0  0  0
    0.8366    1.4981    0.3162 N   0  0  0  0  0  2  0  0  0  0  0  0
   -0.9324   -0.6931    0.8691 N   0  0  0  0  0  2  0  0  0  0  0  0
   -1.2057   -1.7666    1.4466 N   0  0  0  0  0  2  0  0  0  0  0  0
   -1.3055   -2.8091    1.9125 N   0  0  0  0  0  1  0  0  0  0  0  0
    1.7842    2.3982    0.6298 C   0  0  0  0  0  3  0  0  0  0  0  0
    2.8293    2.0692    0.6564 H   0  0  0  0  0  0  0  0  0  0  0  0
    1.1912    3.6617    0.8434 C   0  0  0  0  0  0  0  0  0  0  0  0
    1.6918    4.5964    1.1133 H   0  0  0  0  0  0  0  0  0  0  0  0
   -0.1721    3.4654    0.6346 C   0  0  0  0  0  0  0  0  0  0  0  0
   -1.0239    4.1530    0.6731 H   0  0  0  0  0  0  0  0  0  0  0  0
   -1.5828    1.4869   -0.1003 C   0  0  1  0  0  0  0  0  0  0  0  0
   -2.3691    2.2604    0.0204 H   0  0  0  0  0  0  0  0  0  0  0  0
   -1.5413    1.0564   -1.5759 C   0  0  0  0  0  0  0  0  0  0  0  0
   -1.2857    1.9395   -2.1957 H   0  0  0  0  0  0  0  0  0  0  0  0
   -0.7161    0.3212   -1.7111 H   0  0  0  0  0  0  0  0  0  0  0  0
   -2.8785    0.4400   -2.0021 C   0  0  0  0  0  0  0  0  0  0  0  0
   -3.6708    1.2228   -1.9916 H   0  0  0  0  0  0  0  0  0  0  0  0
   -2.8043    0.0854   -3.0497 H   0  0  0  0  0  0  0  0  0  0  0  0
   -3.2896   -0.7098   -1.0747 C   0  0  0  0  0  0  0  0  0  0  0  0
   -2.5602   -1.5426   -1.1731 H   0  0  0  0  0  0  0  0  0  0  0  0
   -4.2764   -1.1181   -1.3722 H   0  0  0  0  0  0  0  0  0  0  0  0
   -3.3429   -0.2454    0.3864 C   0  0  0  0  0  0  0  0  0  0  0  0
   -4.1178    0.5417    0.5130 H   0  0  0  0  0  0  0  0  0  0  0  0
   -3.6370   -1.0740    1.0640 H   0  0  0  0  0  0  0  0  0  0  0  0
   -1.9986    0.3429    0.8497 C   0  0  1  0  0  0  0  0  0  0  0  0
   -2.0887    0.7625    1.8767 H   0  0  0  0  0  0  0  0  0  0  0  0
  1 10  1  0  0  0  0
  2  1  1  0  0  0  0
  2  6  1  0  0  0  0
  3  4  1  0  0  0  0
  4  5  1  0  0  0  0
  6  7  1  0  0  0  0
  6  8  1  0  0  0  0
  8  9  1  0  0  0  0
 10 11  1  0  0  0  0
 10  8  2  0  0  0  0
 12 13  1  1  0  0  0
 12  1  1  0  0  0  0
 12 26  1  0  0  0  0
 14 12  1  0  0  0  0
 15 14  1  0  0  0  0
 16 14  1  0  0  0  0
 17 18  1  0  0  0  0
 17 14  1  0  0  0  0
 17 20  1  0  0  0  0
 19 17  1  0  0  0  0
 20 23  1  0  0  0  0
 21 20  1  0  0  0  0
 22 20  1  0  0  0  0
 23 24  1  0  0  0  0
 23 26  1  0  0  0  0
 23 25  1  0  0  0  0
 26  3  1  0  0  0  0
 26 27  1  1  0  0  0
M  END
