1,2
 OpenBabel05122313053D

 25 28  0  0  0  0  0  0  0  0999 V2000
   -1.1524   -1.3056    0.2542 N   0  0  0  0  0  2  0  0  0  0  0  0
   -1.2372    1.4246   -0.0540 N   0  0  0  0  0  2  0  0  0  0  0  0
   -6.1191   -1.1685    0.0233 N   0  0  0  0  0  0  0  0  0  0  0  0
   -6.4631   -2.1260    0.0948 H   0  0  0  0  0  0  0  0  0  0  0  0
   -6.1683    1.0698   -0.1827 N   0  0  0  0  0  0  0  0  0  0  0  0
   -1.0573   -2.6276    0.3962 C   0  0  0  0  0  0  0  0  0  0  0  0
   -0.0356   -3.0296    0.4898 H   0  0  0  0  0  0  0  0  0  0  0  0
   -2.1940   -3.4645    0.4308 C   0  0  0  0  0  0  0  0  0  0  0  0
   -2.0729   -4.5503    0.5514 H   0  0  0  0  0  0  0  0  0  0  0  0
   -3.4555   -2.8904    0.3120 C   0  0  0  0  0  0  0  0  0  0  0  0
   -4.3565   -3.5228    0.3375 H   0  0  0  0  0  0  0  0  0  0  0  0
   -3.5728   -1.4873    0.1599 C   0  0  0  0  0  0  0  0  0  0  0  0
   -4.7992   -0.7589    0.0369 C   0  0  0  0  0  0  0  0  0  0  0  0
   -4.8619    0.6409   -0.0936 C   0  0  0  0  0  0  0  0  0  0  0  0
   -3.6597    1.4296   -0.1216 C   0  0  0  0  0  0  0  0  0  0  0  0
   -3.6465    2.8394   -0.2412 C   0  0  0  0  0  0  0  0  0  0  0  0
   -4.6065    3.3703   -0.3206 H   0  0  0  0  0  0  0  0  0  0  0  0
   -2.4260    3.5062   -0.2473 C   0  0  0  0  0  0  0  0  0  0  0  0
   -2.3739    4.6014   -0.3269 H   0  0  0  0  0  0  0  0  0  0  0  0
   -1.2313    2.7563   -0.1513 C   0  0  0  0  0  0  0  0  0  0  0  0
   -0.2304    3.2216   -0.1260 H   0  0  0  0  0  0  0  0  0  0  0  0
   -2.4088    0.7461   -0.0209 C   0  0  0  0  0  0  0  0  0  0  0  0
   -2.3620   -0.7136    0.1322 C   0  0  0  0  0  0  0  0  0  0  0  0
   -6.8918   -0.0332   -0.1107 C   0  0  0  0  0  0  0  0  0  0  0  0
   -7.9881   -0.0845   -0.1497 H   0  0  0  0  0  0  0  0  0  0  0  0
  1  6  1  0  0  0  0
  2 22  1  0  0  0  0
  3 13  1  0  0  0  0
  3  4  1  0  0  0  0
  5 24  2  0  0  0  0
  5 14  1  0  0  0  0
  6  8  2  0  0  0  0
  6  7  1  0  0  0  0
  8  9  1  0  0  0  0
 10 11  1  0  0  0  0
 10  8  1  0  0  0  0
 12 10  2  0  0  0  0
 13 12  1  0  0  0  0
 14 13  2  0  0  0  0
 15 14  1  0  0  0  0
 15 22  1  0  0  0  0
 16 15  2  0  0  0  0
 17 16  1  0  0  0  0
 18 16  1  0  0  0  0
 18 20  2  0  0  0  0
 19 18  1  0  0  0  0
 20 21  1  0  0  0  0
 20  2  1  0  0  0  0
 22 23  2  0  0  0  0
 23 12  1  0  0  0  0
 23  1  1  0  0  0  0
 24  3  1  0  0  0  0
 25 24  1  0  0  0  0
M  END
