5,16
 OpenBabel05122313053D

 30 32  0  0  1  0  0  0  0  0999 V2000
    0.3633   -2.6118    0.9215 S   0  0  0  0  0  0  0  0  0  0  0  0
    5.9442    0.9789   -0.1593 Cl  0  0  0  0  0  0  0  0  0  0  0  0
    4.8406   -1.8826   -1.0419 Cl  0  0  0  0  0  0  0  0  0  0  0  0
   -4.1200   -1.4358   -1.4968 S   0  0  0  0  0  0  0  0  0  0  0  0
    0.0746   -0.0749   -0.1538 N   0  0  0  0  0  2  0  0  0  0  0  0
   -1.8179   -1.5003   -0.0155 N   0  0  2  0  0  0  0  0  0  0  0  0
    1.4602    0.1410   -0.1741 C   0  0  0  0  0  0  0  0  0  0  0  0
    4.2424    0.6506   -0.1772 C   0  0  0  0  0  0  0  0  0  0  0  0
   -2.7034   -0.6939   -0.6974 C   0  0  1  0  0  3  0  0  0  0  0  0
    2.3728   -0.8655   -0.5624 C   0  0  0  0  0  0  0  0  0  0  0  0
    2.0238   -1.8446   -0.9196 H   0  0  0  0  0  0  0  0  0  0  0  0
    3.3283    1.6629    0.1672 C   0  0  0  0  0  0  0  0  0  0  0  0
    3.7162    2.6551    0.4369 H   0  0  0  0  0  0  0  0  0  0  0  0
    1.9537    1.4237    0.1579 C   0  0  0  0  0  0  0  0  0  0  0  0
    1.2503    2.2405    0.3861 H   0  0  0  0  0  0  0  0  0  0  0  0
   -2.5718    0.5873   -0.8230 N   0  0  0  0  0  2  0  0  0  0  0  0
    3.7529   -0.6182   -0.5576 C   0  0  0  0  0  0  0  0  0  0  0  0
   -0.4540   -1.2160    0.1606 C   0  0  2  0  0  3  0  0  0  0  0  0
   -2.2688   -2.7711    0.5751 C   0  0  0  0  0  0  0  0  0  0  0  0
   -2.3150   -3.5589   -0.2095 H   0  0  0  0  0  0  0  0  0  0  0  0
   -3.2784   -2.6283    1.0062 H   0  0  0  0  0  0  0  0  0  0  0  0
   -1.2495   -3.1060    1.6509 C   0  0  0  0  0  0  0  0  0  0  0  0
   -1.2268   -4.1816    1.9030 H   0  0  0  0  0  0  0  0  0  0  0  0
   -1.4136   -2.4858    2.5546 H   0  0  0  0  0  0  0  0  0  0  0  0
   -4.7803    0.2652   -1.7636 C   0  0  0  0  0  0  0  0  0  0  0  0
   -5.3207    0.2920   -2.7279 H   0  0  0  0  0  0  0  0  0  0  0  0
   -5.4856    0.4935   -0.9392 H   0  0  0  0  0  0  0  0  0  0  0  0
   -3.5379    1.1734   -1.7392 C   0  0  0  0  0  0  0  0  0  0  0  0
   -3.0741    1.2444   -2.7491 H   0  0  0  0  0  0  0  0  0  0  0  0
   -3.7777    2.2057   -1.4159 H   0  0  0  0  0  0  0  0  0  0  0  0
  1 22  1  0  0  0  0
  3 17  1  0  0  0  0
  6 18  1  0  0  0  0
  6 19  1  6  0  0  0
  7  5  1  0  0  0  0
  7 14  1  0  0  0  0
  8  2  1  0  0  0  0
  8 12  1  0  0  0  0
  9  4  1  6  0  0  0
  9  6  1  0  0  0  0
 10 17  1  0  0  0  0
 10  7  2  0  0  0  0
 11 10  1  0  0  0  0
 12 13  1  0  0  0  0
 14 12  2  0  0  0  0
 14 15  1  0  0  0  0
 16  9  1  0  0  0  0
 17  8  2  0  0  0  0
 18  5  1  1  0  0  0
 18  1  1  0  0  0  0
 19 21  1  0  0  0  0
 19 22  1  0  0  0  0
 20 19  1  0  0  0  0
 22 23  1  0  0  0  0
 22 24  1  0  0  0  0
 25 28  1  0  0  0  0
 25  4  1  0  0  0  0
 25 27  1  0  0  0  0
 26 25  1  0  0  0  0
 28 30  1  0  0  0  0
 28 16  1  0  0  0  0
 29 28  1  0  0  0  0
M  END
