1,2
 OpenBabel05122313053D

 24 25  0  0  1  0  0  0  0  0999 V2000
   -0.6675    1.4271    0.0861 N   0  0  0  0  0  2  0  0  0  0  0  0
   -1.4160   -1.0503   -0.3278 N   0  0  0  0  0  2  0  0  0  0  0  0
   -0.8187    3.7591    0.0955 O   0  0  0  0  0  0  0  0  0  0  0  0
   -2.0277    1.1935    0.2121 C   0  0  0  0  0  0  0  0  0  0  0  0
   -3.0508    2.1161    0.5134 C   0  0  0  0  0  0  0  0  0  0  0  0
   -2.7776    3.1618    0.6868 H   0  0  0  0  0  0  0  0  0  0  0  0
   -4.4001    1.6994    0.5608 C   0  0  0  0  0  0  0  0  0  0  0  0
   -5.1659    2.4516    0.8062 H   0  0  0  0  0  0  0  0  0  0  0  0
   -4.7909    0.3902    0.2939 C   0  0  0  0  0  0  0  0  0  0  0  0
   -5.8493    0.0919    0.3110 H   0  0  0  0  0  0  0  0  0  0  0  0
   -3.7990   -0.5732   -0.0296 C   0  0  0  0  0  0  0  0  0  0  0  0
   -2.4220   -0.1649   -0.0348 C   0  0  1  0  0  3  0  0  0  0  0  0
   -4.0768   -1.9243   -0.3823 C   0  0  0  0  0  0  0  0  0  0  0  0
   -5.1208   -2.2737   -0.3868 H   0  0  0  0  0  0  0  0  0  0  0  0
   -3.0399   -2.7731   -0.7421 C   0  0  0  0  0  0  0  0  0  0  0  0
   -3.2290   -3.8101   -1.0532 H   0  0  0  0  0  0  0  0  0  0  0  0
   -1.7095   -2.2993   -0.7067 C   0  0  0  0  0  0  0  0  0  0  0  0
   -0.8610   -2.9351   -0.9900 H   0  0  0  0  0  0  0  0  0  0  0  0
   -0.1928    2.7125   -0.0531 C   0  0  0  0  0  0  0  0  0  0  0  0
    1.1310    2.7130   -0.4013 O   0  0  0  0  0  0  0  0  0  0  0  0
    1.6712    4.0085   -0.6407 C   0  0  0  0  0  0  0  0  0  0  0  0
    1.1286    4.5235   -1.4593 H   0  0  0  0  0  0  0  0  0  0  0  0
    2.7266    3.8506   -0.9308 H   0  0  0  0  0  0  0  0  0  0  0  0
    1.6117    4.6488    0.2643 H   0  0  0  0  0  0  0  0  0  0  0  0
  1  4  1  0  0  0  0
  4  5  2  0  0  0  0
  5  7  1  0  0  0  0
  5  6  1  0  0  0  0
  7  8  1  0  0  0  0
  9 10  1  0  0  0  0
  9  7  2  0  0  0  0
 11  9  1  0  0  0  0
 12  2  1  6  0  0  0
 12 11  1  0  0  0  0
 12  4  1  0  0  0  0
 13 11  2  0  0  0  0
 14 13  1  0  0  0  0
 15 17  2  0  0  0  0
 15 13  1  0  0  0  0
 16 15  1  0  0  0  0
 17  2  1  0  0  0  0
 18 17  1  0  0  0  0
 19  1  1  0  0  0  0
 19  3  2  0  0  0  0
 20 19  1  0  0  0  0
 21 20  1  0  0  0  0
 21 24  1  0  0  0  0
 22 21  1  0  0  0  0
 23 21  1  0  0  0  0
M  END
