1,2
 OpenBabel05122313053D

 56 58  0  0  1  0  0  0  0  0999 V2000
    0.9758   -0.9509    0.0040 N   0  0  0  0  0  2  0  0  0  0  0  0
   -1.1741   -0.3357    0.1129 N   0  0  0  0  0  2  0  0  0  0  0  0
   -0.3040   -1.3735    0.2463 C   0  0  2  0  0  3  0  0  0  0  0  0
    2.0287   -1.7691    0.1881 C   0  0  0  0  0  0  0  0  0  0  0  0
    1.8343   -3.1268    0.5085 C   0  0  0  0  0  0  0  0  0  0  0  0
    2.7008   -3.7908    0.6268 H   0  0  0  0  0  0  0  0  0  0  0  0
    0.5196   -3.5900    0.7136 C   0  0  0  0  0  0  0  0  0  0  0  0
    0.3491   -4.6449    0.9811 H   0  0  0  0  0  0  0  0  0  0  0  0
   -0.5681   -2.7218    0.6145 C   0  0  0  0  0  0  0  0  0  0  0  0
   -1.5971   -3.0439    0.8214 H   0  0  0  0  0  0  0  0  0  0  0  0
    3.3991   -1.1631    0.1699 C   0  0  0  0  0  0  0  0  0  0  0  0
    4.0973   -1.0664    1.4056 C   0  0  0  0  0  0  0  0  0  0  0  0
    5.3737   -0.4713    1.4190 C   0  0  0  0  0  0  0  0  0  0  0  0
    5.9116   -0.3843    2.3761 H   0  0  0  0  0  0  0  0  0  0  0  0
    5.9562    0.0131    0.2413 C   0  0  0  0  0  0  0  0  0  0  0  0
    6.9565    0.4718    0.2680 H   0  0  0  0  0  0  0  0  0  0  0  0
    5.2594   -0.0849   -0.9687 C   0  0  0  0  0  0  0  0  0  0  0  0
    5.7122    0.2946   -1.8983 H   0  0  0  0  0  0  0  0  0  0  0  0
    3.9764   -0.6644   -1.0243 C   0  0  0  0  0  0  0  0  0  0  0  0
    3.2325   -0.7142   -2.3300 C   0  0  0  0  0  0  0  0  0  0  0  0
    2.6757   -1.6637   -2.4542 H   0  0  0  0  0  0  0  0  0  0  0  0
    3.9201   -0.5949   -3.1893 H   0  0  0  0  0  0  0  0  0  0  0  0
    2.4816    0.1042   -2.3690 H   0  0  0  0  0  0  0  0  0  0  0  0
    3.4927   -1.5560    2.7016 C   0  0  0  0  0  0  0  0  0  0  0  0
    2.4299   -1.2574    2.8002 H   0  0  0  0  0  0  0  0  0  0  0  0
    4.0484   -1.1520    3.5699 H   0  0  0  0  0  0  0  0  0  0  0  0
    3.5138   -2.6625    2.7769 H   0  0  0  0  0  0  0  0  0  0  0  0
   -2.5467   -0.4504    0.4375 C   0  0  0  0  0  0  0  0  0  0  0  0
   -3.0156    0.1606    1.6397 C   0  0  0  0  0  0  0  0  0  0  0  0
   -4.3819    0.0722    1.9564 C   0  0  0  0  0  0  0  0  0  0  0  0
   -4.7551    0.5398    2.8790 H   0  0  0  0  0  0  0  0  0  0  0  0
   -5.2790   -0.6050    1.1184 C   0  0  0  0  0  0  0  0  0  0  0  0
   -6.3449   -0.6673    1.3855 H   0  0  0  0  0  0  0  0  0  0  0  0
   -4.8133   -1.1922   -0.0618 C   0  0  0  0  0  0  0  0  0  0  0  0
   -5.5222   -1.7119   -0.7256 H   0  0  0  0  0  0  0  0  0  0  0  0
   -3.4548   -1.1223   -0.4279 C   0  0  0  0  0  0  0  0  0  0  0  0
   -3.0042   -1.7234   -1.7536 C   0  0  0  0  0  0  0  0  0  0  0  0
   -1.9054   -1.6025   -1.8108 H   0  0  0  0  0  0  0  0  0  0  0  0
   -3.3168   -3.2250   -1.8577 C   0  0  0  0  0  0  0  0  0  0  0  0
   -2.8608   -3.7952   -1.0246 H   0  0  0  0  0  0  0  0  0  0  0  0
   -2.9234   -3.6408   -2.8081 H   0  0  0  0  0  0  0  0  0  0  0  0
   -4.4100   -3.4164   -1.8396 H   0  0  0  0  0  0  0  0  0  0  0  0
   -3.6120   -0.9543   -2.9401 C   0  0  0  0  0  0  0  0  0  0  0  0
   -4.7184   -1.0409   -2.9520 H   0  0  0  0  0  0  0  0  0  0  0  0
   -3.2325   -1.3507   -3.9046 H   0  0  0  0  0  0  0  0  0  0  0  0
   -3.3637    0.1247   -2.8914 H   0  0  0  0  0  0  0  0  0  0  0  0
   -2.0321    0.8715    2.5602 C   0  0  0  0  0  0  0  0  0  0  0  0
   -1.3006    1.3708    1.8891 H   0  0  0  0  0  0  0  0  0  0  0  0
   -1.2588   -0.1384    3.4288 C   0  0  0  0  0  0  0  0  0  0  0  0
   -1.9498   -0.6722    4.1141 H   0  0  0  0  0  0  0  0  0  0  0  0
   -0.4955    0.3763    4.0492 H   0  0  0  0  0  0  0  0  0  0  0  0
   -0.7439   -0.9026    2.8143 H   0  0  0  0  0  0  0  0  0  0  0  0
   -2.6678    1.9602    3.4322 C   0  0  0  0  0  0  0  0  0  0  0  0
   -3.2647    2.6722    2.8276 H   0  0  0  0  0  0  0  0  0  0  0  0
   -1.8797    2.5364    3.9580 H   0  0  0  0  0  0  0  0  0  0  0  0
   -3.3333    1.5351    4.2127 H   0  0  0  0  0  0  0  0  0  0  0  0
  1  4  1  0  0  0  0
  1  3  1  0  0  0  0
  2 28  1  0  0  0  0
  3  2  1  1  0  0  0
  3  9  1  0  0  0  0
  4  5  2  0  0  0  0
  5  6  1  0  0  0  0
  5  7  1  0  0  0  0
  7  8  1  0  0  0  0
  9  7  2  0  0  0  0
  9 10  1  0  0  0  0
 11  4  1  0  0  0  0
 11 12  1  0  0  0  0
 12 13  2  0  0  0  0
 12 24  1  0  0  0  0
 13 14  1  0  0  0  0
 15 16  1  0  0  0  0
 15 13  1  0  0  0  0
 17 15  2  0  0  0  0
 18 17  1  0  0  0  0
 19 17  1  0  0  0  0
 19 11  2  0  0  0  0
 20 19  1  0  0  0  0
 21 20  1  0  0  0  0
 22 20  1  0  0  0  0
 23 20  1  0  0  0  0
 24 27  1  0  0  0  0
 24 25  1  0  0  0  0
 24 26  1  0  0  0  0
 28 29  1  0  0  0  0
 29 30  2  0  0  0  0
 29 47  1  0  0  0  0
 30 31  1  0  0  0  0
 32 33  1  0  0  0  0
 32 30  1  0  0  0  0
 34 32  2  0  0  0  0
 35 34  1  0  0  0  0
 36 34  1  0  0  0  0
 36 28  2  0  0  0  0
 37 36  1  0  0  0  0
 38 37  1  0  0  0  0
 39 42  1  0  0  0  0
 39 37  1  0  0  0  0
 39 40  1  0  0  0  0
 41 39  1  0  0  0  0
 43 46  1  0  0  0  0
 43 37  1  0  0  0  0
 44 43  1  0  0  0  0
 45 43  1  0  0  0  0
 47 49  1  0  0  0  0
 47 53  1  0  0  0  0
 48 47  1  0  0  0  0
 49 51  1  0  0  0  0
 49 50  1  0  0  0  0
 52 49  1  0  0  0  0
 53 55  1  0  0  0  0
 53 56  1  0  0  0  0
 54 53  1  0  0  0  0
M  END
