1,14
 OpenBabel05122313053D

 42 44  0  0  0  0  0  0  0  0999 V2000
   -2.3013    0.5376    0.0630 N   0  0  0  0  0  2  0  0  0  0  0  0
   -2.4637    1.8728   -0.0608 C   0  0  0  0  0  0  0  0  0  0  0  0
   -3.7656    2.4458   -0.1292 C   0  0  0  0  0  3  0  0  0  0  0  0
   -4.5713    1.6970   -0.1443 H   0  0  0  0  0  0  0  0  0  0  0  0
   -4.1996    3.7748   -0.1762 C   0  0  0  0  0  0  0  0  0  0  0  0
   -5.2947    3.8931   -0.2394 H   0  0  0  0  0  0  0  0  0  0  0  0
   -3.4619    4.9653   -0.1293 C   0  0  0  0  0  0  0  0  0  0  0  0
   -4.0294    5.9087   -0.1407 H   0  0  0  0  0  0  0  0  0  0  0  0
   -2.0623    5.0613   -0.0587 C   0  0  0  0  0  0  0  0  0  0  0  0
   -1.6562    6.0849    0.0094 H   0  0  0  0  0  0  0  0  0  0  0  0
   -1.0942    4.0563   -0.0783 C   0  0  0  0  0  0  0  0  0  0  0  0
   -0.0556    4.4165   -0.0277 H   0  0  0  0  0  0  0  0  0  0  0  0
   -1.1947    2.6346   -0.1615 C   0  0  0  0  0  0  0  0  0  0  0  0
   -0.0974    1.8619   -0.2609 N   0  0  0  0  0  2  0  0  0  0  0  0
   -3.4307   -0.3075    0.2236 C   0  0  0  0  0  0  0  0  0  0  0  0
   -3.9403   -1.0351   -0.8686 C   0  0  0  0  0  0  0  0  0  0  0  0
   -3.4647   -0.9120   -1.8526 H   0  0  0  0  0  0  0  0  0  0  0  0
   -5.0281   -1.9006   -0.6962 C   0  0  0  0  0  0  0  0  0  0  0  0
   -5.4144   -2.4603   -1.5632 H   0  0  0  0  0  0  0  0  0  0  0  0
   -5.6370   -2.0732    0.5638 C   0  0  0  0  0  0  0  0  0  0  0  0
   -5.1179   -1.3379    1.6491 C   0  0  0  0  0  0  0  0  0  0  0  0
   -5.5739   -1.4519    2.6457 H   0  0  0  0  0  0  0  0  0  0  0  0
   -4.0310   -0.4688    1.4878 C   0  0  0  0  0  0  0  0  0  0  0  0
   -3.6291    0.0964    2.3416 H   0  0  0  0  0  0  0  0  0  0  0  0
   -6.7798   -3.0395    0.7514 C   0  0  0  0  0  0  0  0  0  0  0  0
   -6.4071   -4.0588    0.9927 H   0  0  0  0  0  0  0  0  0  0  0  0
   -7.3951   -3.1284   -0.1660 H   0  0  0  0  0  0  0  0  0  0  0  0
   -7.4439   -2.7314    1.5832 H   0  0  0  0  0  0  0  0  0  0  0  0
    1.1859    2.4391   -0.3920 C   0  0  0  0  0  0  0  0  0  0  0  0
    1.5904    3.0585   -1.5951 C   0  0  0  0  0  0  0  0  0  0  0  0
    0.8668    3.1397   -2.4197 H   0  0  0  0  0  0  0  0  0  0  0  0
    2.9011    3.5282   -1.7446 C   0  0  0  0  0  0  0  0  0  0  0  0
    3.2019    3.9911   -2.6983 H   0  0  0  0  0  0  0  0  0  0  0  0
    3.8513    3.4024   -0.7078 C   0  0  0  0  0  0  0  0  0  0  0  0
    3.4311    2.7970    0.4944 C   0  0  0  0  0  0  0  0  0  0  0  0
    4.1490    2.6765    1.3213 H   0  0  0  0  0  0  0  0  0  0  0  0
    2.1209    2.3280    0.6575 C   0  0  0  0  0  0  0  0  0  0  0  0
    1.8106    1.8415    1.5930 H   0  0  0  0  0  0  0  0  0  0  0  0
    5.2570    3.9245   -0.8702 C   0  0  0  0  0  0  0  0  0  0  0  0
    5.5986    3.8616   -1.9225 H   0  0  0  0  0  0  0  0  0  0  0  0
    5.9759    3.3640   -0.2402 H   0  0  0  0  0  0  0  0  0  0  0  0
    5.3259    4.9929   -0.5702 H   0  0  0  0  0  0  0  0  0  0  0  0
  1 15  1  0  0  0  0
  2  1  1  0  0  0  0
  3  2  1  0  0  0  0
  4  3  1  0  0  0  0
  5  7  2  0  0  0  0
  5  3  1  0  0  0  0
  6  5  1  0  0  0  0
  7  9  1  0  0  0  0
  8  7  1  0  0  0  0
  9 10  1  0  0  0  0
 11  9  2  0  0  0  0
 11 12  1  0  0  0  0
 13 11  1  0  0  0  0
 13  2  2  0  0  0  0
 14 13  1  0  0  0  0
 15 23  1  0  0  0  0
 16 18  1  0  0  0  0
 16 15  2  0  0  0  0
 17 16  1  0  0  0  0
 18 20  2  0  0  0  0
 19 18  1  0  0  0  0
 20 25  1  0  0  0  0
 20 21  1  0  0  0  0
 21 22  1  0  0  0  0
 23 21  2  0  0  0  0
 23 24  1  0  0  0  0
 25 26  1  0  0  0  0
 25 28  1  0  0  0  0
 27 25  1  0  0  0  0
 29 14  1  0  0  0  0
 29 37  1  0  0  0  0
 30 29  2  0  0  0  0
 31 30  1  0  0  0  0
 32 30  1  0  0  0  0
 32 34  2  0  0  0  0
 33 32  1  0  0  0  0
 34 35  1  0  0  0  0
 35 37  2  0  0  0  0
 35 36  1  0  0  0  0
 37 38  1  0  0  0  0
 39 34  1  0  0  0  0
 39 42  1  0  0  0  0
 39 41  1  0  0  0  0
 40 39  1  0  0  0  0
M  END
