1,2
 OpenBabel05122313053D

 50 54  0  0  1  0  0  0  0  0999 V2000
    2.5888   -1.4284    0.2359 N   0  0  0  0  0  2  0  0  0  0  0  0
    1.1528    0.7906    0.5352 N   0  0  0  0  0  2  0  0  0  0  0  0
   -1.6217    0.8483    0.4886 N   0  0  0  0  0  0  0  0  0  0  0  0
   -2.3215   -2.4837    0.4489 N   0  0  0  0  0  0  0  0  0  0  0  0
   -1.3325   -0.7923    2.2249 O   0  0  0  0  0  0  0  0  0  0  0  0
    3.4492   -2.4543    0.2707 C   0  0  0  0  0  3  0  0  0  0  0  0
    4.4486   -2.2595   -0.1516 H   0  0  0  0  0  0  0  0  0  0  0  0
    3.1018   -3.6986    0.8148 C   0  0  0  0  0  0  0  0  0  0  0  0
    3.8311   -4.5208    0.8217 H   0  0  0  0  0  0  0  0  0  0  0  0
    1.8128   -3.8556    1.3475 C   0  0  0  0  0  0  0  0  0  0  0  0
    1.5044   -4.8148    1.7895 H   0  0  0  0  0  0  0  0  0  0  0  0
    0.9188   -2.7781    1.3273 C   0  0  0  0  0  0  0  0  0  0  0  0
   -0.0884   -2.8557    1.7589 H   0  0  0  0  0  0  0  0  0  0  0  0
    1.3414   -1.5601    0.7552 C   0  0  0  0  0  0  0  0  0  0  0  0
    0.5131   -0.3324    0.7201 C   0  0  2  0  0  3  0  0  0  0  0  0
   -1.0036   -0.4283    0.8901 C   0  0  2  0  0  0  0  0  0  0  0  0
   -1.5244   -1.5341   -0.0535 C   0  0  0  0  0  0  0  0  0  0  0  0
   -1.1232   -1.4814   -1.4034 C   0  0  0  0  0  0  0  0  0  0  0  0
   -0.4264   -0.7046   -1.7682 H   0  0  0  0  0  0  0  0  0  0  0  0
   -1.6029   -2.4724   -2.2684 C   0  0  0  0  0  0  0  0  0  0  0  0
   -1.3030   -2.4693   -3.3272 H   0  0  0  0  0  0  0  0  0  0  0  0
   -2.4569   -3.4622   -1.7595 C   0  0  0  0  0  0  0  0  0  0  0  0
   -2.8604   -4.2574   -2.4040 H   0  0  0  0  0  0  0  0  0  0  0  0
   -2.7795   -3.4233   -0.3938 C   0  0  0  0  0  0  0  0  0  0  0  0
   -3.4397   -4.1924    0.0458 H   0  0  0  0  0  0  0  0  0  0  0  0
   -0.9211    2.0473    0.5136 C   0  0  0  0  0  0  0  0  0  0  0  0
    0.5042    2.0045    0.5120 C   0  0  0  0  0  0  0  0  0  0  0  0
    1.2700    3.1931    0.4770 C   0  0  0  0  0  0  0  0  0  0  0  0
    2.3679    3.0945    0.4615 H   0  0  0  0  0  0  0  0  0  0  0  0
    0.6312    4.4299    0.4628 C   0  0  0  0  0  0  0  0  0  0  0  0
    1.2193    5.3581    0.4366 H   0  0  0  0  0  0  0  0  0  0  0  0
   -0.7803    4.4786    0.4863 C   0  0  0  0  0  0  0  0  0  0  0  0
   -1.2919    5.4532    0.4889 H   0  0  0  0  0  0  0  0  0  0  0  0
   -1.5525    3.3140    0.5089 C   0  0  0  0  0  0  0  0  0  0  0  0
   -2.6488    3.3741    0.5226 H   0  0  0  0  0  0  0  0  0  0  0  0
   -2.9970    0.8253    0.0906 C   0  0  0  0  0  0  0  0  0  0  0  0
   -3.3534    1.3437   -1.1709 C   0  0  0  0  0  0  0  0  0  0  0  0
   -2.5697    1.7618   -1.8198 H   0  0  0  0  0  0  0  0  0  0  0  0
   -4.6896    1.3097   -1.5870 C   0  0  0  0  0  0  0  0  0  0  0  0
   -4.9620    1.7152   -2.5730 H   0  0  0  0  0  0  0  0  0  0  0  0
   -5.6735    0.7414   -0.7596 C   0  0  0  0  0  0  0  0  0  0  0  0
   -6.7221    0.7095   -1.0913 H   0  0  0  0  0  0  0  0  0  0  0  0
   -5.3117    0.2072    0.4861 C   0  0  0  0  0  0  0  0  0  0  0  0
   -6.0754   -0.2481    1.1345 H   0  0  0  0  0  0  0  0  0  0  0  0
   -3.9783    0.2524    0.9207 C   0  0  0  0  0  0  0  0  0  0  0  0
   -3.6803   -0.1807    1.8844 H   0  0  0  0  0  0  0  0  0  0  0  0
   -0.9116    0.1347    3.2176 C   0  0  0  0  0  0  0  0  0  0  0  0
   -1.1615   -0.3173    4.1954 H   0  0  0  0  0  0  0  0  0  0  0  0
   -1.4440    1.1071    3.1228 H   0  0  0  0  0  0  0  0  0  0  0  0
    0.1847    0.3270    3.1804 H   0  0  0  0  0  0  0  0  0  0  0  0
  1  6  1  0  0  0  0
  1 14  1  0  0  0  0
  2 15  1  0  0  0  0
  3 26  1  0  0  0  0
  3 16  1  0  0  0  0
  5 47  1  0  0  0  0
  6  8  1  0  0  0  0
  7  6  1  0  0  0  0
  8  9  1  0  0  0  0
  8 10  2  0  0  0  0
 10 11  1  0  0  0  0
 12 10  1  0  0  0  0
 12 13  1  0  0  0  0
 14 12  2  0  0  0  0
 15 14  1  6  0  0  0
 15 16  1  0  0  0  0
 16  5  1  1  0  0  0
 17  4  1  0  0  0  0
 17 16  1  0  0  0  0
 18 17  2  0  0  0  0
 19 18  1  0  0  0  0
 20 22  2  0  0  0  0
 20 18  1  0  0  0  0
 21 20  1  0  0  0  0
 22 24  1  0  0  0  0
 23 22  1  0  0  0  0
 24 25  1  0  0  0  0
 24  4  2  0  0  0  0
 27 26  1  0  0  0  0
 27  2  1  0  0  0  0
 28 27  2  0  0  0  0
 29 28  1  0  0  0  0
 30 28  1  0  0  0  0
 30 32  2  0  0  0  0
 31 30  1  0  0  0  0
 32 33  1  0  0  0  0
 32 34  1  0  0  0  0
 34 26  2  0  0  0  0
 34 35  1  0  0  0  0
 36  3  1  0  0  0  0
 36 45  1  0  0  0  0
 37 36  2  0  0  0  0
 38 37  1  0  0  0  0
 39 37  1  0  0  0  0
 39 41  2  0  0  0  0
 40 39  1  0  0  0  0
 41 43  1  0  0  0  0
 42 41  1  0  0  0  0
 43 45  2  0  0  0  0
 43 44  1  0  0  0  0
 45 46  1  0  0  0  0
 47 48  1  0  0  0  0
 49 47  1  0  0  0  0
 50 47  1  0  0  0  0
M  END
