1,3
 OpenBabel05122313053D

 21 22  0  0  0  0  0  0  0  0999 V2000
   -2.6425   -0.3086   -0.0003 N   0  0  0  0  0  2  0  0  0  0  0  0
   -3.1525    0.9636    0.0001 C   0  0  0  0  0  0  0  0  0  0  0  0
   -0.8426    1.6820   -0.0011 N   0  0  0  0  0  2  0  0  0  0  0  0
   -2.1578    2.0561   -0.0007 C   0  0  0  0  0  0  0  0  0  0  0  0
   -2.5079    3.4202   -0.0012 C   0  0  0  0  0  0  0  0  0  0  0  0
   -3.4972   -1.3634    0.0000 C   0  0  0  0  0  0  0  0  0  0  0  0
   -1.5117    4.3995   -0.0022 C   0  0  0  0  0  0  0  0  0  0  0  0
    0.1221    2.6296   -0.0021 C   0  0  0  0  0  0  0  0  0  0  0  0
   -3.0619   -2.6026   -0.0007 O   0  0  0  0  0  0  0  0  0  0  0  0
   -2.0425   -2.6607   -0.0006 H   0  0  0  0  0  0  0  0  0  0  0  0
   -4.5303    1.2106    0.0011 C   0  0  0  0  0  0  0  0  0  0  0  0
   -5.4172    0.1188    0.0017 C   0  0  0  0  0  0  0  0  0  0  0  0
   -4.9076   -1.1702    0.0012 C   0  0  0  0  0  0  0  0  0  0  0  0
   -0.1689    3.9951   -0.0026 C   0  0  0  0  0  0  0  0  0  0  0  0
   -5.5456   -2.0638    0.0015 H   0  0  0  0  0  0  0  0  0  0  0  0
   -6.5040    0.2879    0.0027 H   0  0  0  0  0  0  0  0  0  0  0  0
   -4.9174    2.2362    0.0015 H   0  0  0  0  0  0  0  0  0  0  0  0
    1.1557    2.2565   -0.0023 H   0  0  0  0  0  0  0  0  0  0  0  0
    0.6541    4.7231   -0.0034 H   0  0  0  0  0  0  0  0  0  0  0  0
   -1.7814    5.4656   -0.0027 H   0  0  0  0  0  0  0  0  0  0  0  0
   -3.5652    3.7132   -0.0009 H   0  0  0  0  0  0  0  0  0  0  0  0
  1  6  1  0  0  0  0
  1  2  1  0  0  0  0
  2 11  1  0  0  0  0
  3  4  1  0  0  0  0
  4  2  2  0  0  0  0
  5 21  1  0  0  0  0
  5  4  1  0  0  0  0
  6 13  2  0  0  0  0
  7  5  2  0  0  0  0
  8  3  1  0  0  0  0
  9 10  1  0  0  0  0
  9  6  1  0  0  0  0
 11 17  1  0  0  0  0
 11 12  2  0  0  0  0
 12 16  1  0  0  0  0
 13 15  1  0  0  0  0
 13 12  1  0  0  0  0
 14  7  1  0  0  0  0
 14  8  2  0  0  0  0
 18  8  1  0  0  0  0
 19 14  1  0  0  0  0
 20  7  1  0  0  0  0
M  END
