1,3
 OpenBabel05122313053D

 40 41  0  0  1  0  0  0  0  0999 V2000
    1.4001   -0.7285   -0.7929 N   0  0  0  0  0  2  0  0  0  0  0  0
   -0.6297   -1.7517    0.8832 N   0  0  0  0  0  0  0  0  0  0  0  0
   -1.1607    0.0840   -1.2771 N   0  0  0  0  0  2  0  0  0  0  0  0
    2.0965   -0.4097   -1.9064 C   0  0  0  0  0  3  0  0  0  0  0  0
    1.8702    0.5878   -2.3231 H   0  0  0  0  0  0  0  0  0  0  0  0
    3.0382   -1.2883   -2.4514 C   0  0  0  0  0  0  0  0  0  0  0  0
    3.5898   -0.9938   -3.3552 H   0  0  0  0  0  0  0  0  0  0  0  0
    3.2617   -2.5215   -1.8240 C   0  0  0  0  0  0  0  0  0  0  0  0
    4.0002   -3.2319   -2.2250 H   0  0  0  0  0  0  0  0  0  0  0  0
    2.5160   -2.8439   -0.6819 C   0  0  0  0  0  0  0  0  0  0  0  0
    2.6406   -3.8115   -0.1739 H   0  0  0  0  0  0  0  0  0  0  0  0
    1.5821   -1.9251   -0.1793 C   0  0  0  0  0  0  0  0  0  0  0  0
    0.7389   -2.2183    1.0418 C   0  0  0  0  0  0  0  0  0  0  0  0
    0.8308   -3.3105    1.2725 H   0  0  0  0  0  0  0  0  0  0  0  0
    1.1928   -1.6630    1.8878 H   0  0  0  0  0  0  0  0  0  0  0  0
   -1.4743   -1.7003    2.1177 C   0  0  0  0  0  0  0  0  0  0  0  0
   -1.7960   -3.1231    2.6254 C   0  0  0  0  0  0  0  0  0  0  0  0
   -0.8735   -3.6797    2.8894 H   0  0  0  0  0  0  0  0  0  0  0  0
   -2.3525   -3.7162    1.8699 H   0  0  0  0  0  0  0  0  0  0  0  0
   -2.4272   -3.0779    3.5353 H   0  0  0  0  0  0  0  0  0  0  0  0
   -2.7780   -0.9472    1.7935 C   0  0  0  0  0  0  0  0  0  0  0  0
   -3.3911   -0.8669    2.7127 H   0  0  0  0  0  0  0  0  0  0  0  0
   -3.3964   -1.4710    1.0378 H   0  0  0  0  0  0  0  0  0  0  0  0
   -2.5437    0.0734    1.4330 H   0  0  0  0  0  0  0  0  0  0  0  0
   -0.7384   -0.9084    3.2141 C   0  0  0  0  0  0  0  0  0  0  0  0
   -0.3954    0.0683    2.8235 H   0  0  0  0  0  0  0  0  0  0  0  0
    0.1347   -1.4578    3.6198 H   0  0  0  0  0  0  0  0  0  0  0  0
   -1.4296   -0.7352    4.0620 H   0  0  0  0  0  0  0  0  0  0  0  0
   -1.2902   -2.2082   -0.3249 C   0  0  0  0  0  0  0  0  0  0  0  0
   -2.1249   -2.9171   -0.1228 H   0  0  0  0  0  0  0  0  0  0  0  0
   -0.5684   -2.7939   -0.9359 H   0  0  0  0  0  0  0  0  0  0  0  0
   -1.8173   -1.1020   -1.2314 C   0  0  2  0  0  3  0  0  0  0  0  0
   -2.9255   -1.3334   -2.0616 C   0  0  0  0  0  0  0  0  0  0  0  0
   -3.4491   -2.2991   -1.9938 H   0  0  0  0  0  0  0  0  0  0  0  0
   -3.3532   -0.3418   -2.9527 C   0  0  0  0  0  0  0  0  0  0  0  0
   -4.2264   -0.5113   -3.6004 H   0  0  0  0  0  0  0  0  0  0  0  0
   -2.6465    0.8680   -2.9990 C   0  0  0  0  0  0  0  0  0  0  0  0
   -2.9311    1.6780   -3.6852 H   0  0  0  0  0  0  0  0  0  0  0  0
   -1.5532    1.0447   -2.1472 C   0  0  0  0  0  0  0  0  0  0  0  0
   -0.9402    1.9568   -2.1485 H   0  0  0  0  0  0  0  0  0  0  0  0
  1 12  1  0  0  0  0
  2 13  1  0  0  0  0
  2 16  1  0  0  0  0
  3 32  1  0  0  0  0
  4  1  1  0  0  0  0
  5  4  1  0  0  0  0
  6  4  1  0  0  0  0
  6  8  2  0  0  0  0
  7  6  1  0  0  0  0
  8 10  1  0  0  0  0
  9  8  1  0  0  0  0
 10 12  2  0  0  0  0
 10 11  1  0  0  0  0
 12 13  1  0  0  0  0
 13 14  1  0  0  0  0
 13 15  1  0  0  0  0
 16 17  1  0  0  0  0
 16 25  1  0  0  0  0
 17 18  1  0  0  0  0
 17 20  1  0  0  0  0
 19 17  1  0  0  0  0
 21 16  1  0  0  0  0
 21 22  1  0  0  0  0
 23 21  1  0  0  0  0
 24 21  1  0  0  0  0
 25 27  1  0  0  0  0
 25 28  1  0  0  0  0
 26 25  1  0  0  0  0
 29 30  1  0  0  0  0
 29  2  1  0  0  0  0
 31 29  1  0  0  0  0
 32 29  1  6  0  0  0
 33 34  1  0  0  0  0
 33 32  1  0  0  0  0
 35 33  2  0  0  0  0
 36 35  1  0  0  0  0
 37 35  1  0  0  0  0
 37 39  2  0  0  0  0
 38 37  1  0  0  0  0
 39  3  1  0  0  0  0
 40 39  1  0  0  0  0
M  END
