1,2
 OpenBabel05122313053D

 32 33  0  0  0  0  0  0  0  0999 V2000
   -1.6799    0.9406    0.0588 N   0  0  0  0  0  2  0  0  0  0  0  0
    0.3726   -0.1265   -1.3457 N   0  0  0  0  0  0  0  0  0  0  0  0
    0.5167   -0.9036   -2.0079 H   0  0  0  0  0  0  0  0  0  0  0  0
   -2.4796    1.4673    1.0111 C   0  0  0  0  0  3  0  0  0  0  0  0
   -2.8481    0.7373    1.7520 H   0  0  0  0  0  0  0  0  0  0  0  0
   -2.8172    2.8247    1.0086 C   0  0  0  0  0  0  0  0  0  0  0  0
   -3.4711    3.2200    1.7987 H   0  0  0  0  0  0  0  0  0  0  0  0
   -2.3128    3.6537   -0.0039 C   0  0  0  0  0  0  0  0  0  0  0  0
   -2.5601    4.7253   -0.0281 H   0  0  0  0  0  0  0  0  0  0  0  0
   -1.4821    3.0962   -0.9882 C   0  0  0  0  0  0  0  0  0  0  0  0
   -1.0644    3.7136   -1.7969 H   0  0  0  0  0  0  0  0  0  0  0  0
   -1.1831    1.7301   -0.9344 C   0  0  0  0  0  0  0  0  0  0  0  0
   -0.3471    1.0070   -1.9663 C   0  0  0  0  0  0  0  0  0  0  0  0
    0.3456    1.7045   -2.4844 H   0  0  0  0  0  0  0  0  0  0  0  0
   -1.0298    0.5713   -2.7258 H   0  0  0  0  0  0  0  0  0  0  0  0
    1.6097    0.1598   -0.6476 C   0  0  0  0  0  0  0  0  0  0  0  0
    1.9394    1.4606   -0.2347 C   0  0  0  0  0  0  0  0  0  0  0  0
    1.2672    2.3074   -0.4296 H   0  0  0  0  0  0  0  0  0  0  0  0
    3.1412    1.6958    0.4638 C   0  0  0  0  0  0  0  0  0  0  0  0
    3.5025    3.0966    0.8917 C   0  0  0  0  0  0  0  0  0  0  0  0
    3.8087    3.7157    0.0213 H   0  0  0  0  0  0  0  0  0  0  0  0
    4.3428    3.0983    1.6120 H   0  0  0  0  0  0  0  0  0  0  0  0
    2.6421    3.6105    1.3667 H   0  0  0  0  0  0  0  0  0  0  0  0
    3.9905    0.6091    0.7336 C   0  0  0  0  0  0  0  0  0  0  0  0
    4.9287    0.7853    1.2837 H   0  0  0  0  0  0  0  0  0  0  0  0
    3.6676   -0.7026    0.3292 C   0  0  0  0  0  0  0  0  0  0  0  0
    4.5694   -1.8670    0.6520 C   0  0  0  0  0  0  0  0  0  0  0  0
    4.0535   -2.5925    1.3148 H   0  0  0  0  0  0  0  0  0  0  0  0
    5.4969   -1.5393    1.1592 H   0  0  0  0  0  0  0  0  0  0  0  0
    4.8552   -2.4214   -0.2652 H   0  0  0  0  0  0  0  0  0  0  0  0
    2.4673   -0.9181   -0.3667 C   0  0  0  0  0  0  0  0  0  0  0  0
    2.1499   -1.9356   -0.6460 H   0  0  0  0  0  0  0  0  0  0  0  0
  1  4  1  0  0  0  0
  2 16  1  0  0  0  0
  3  2  1  0  0  0  0
  4  5  1  0  0  0  0
  6  4  1  0  0  0  0
  6  7  1  0  0  0  0
  8  6  2  0  0  0  0
  9  8  1  0  0  0  0
 10 12  2  0  0  0  0
 10  8  1  0  0  0  0
 11 10  1  0  0  0  0
 12  1  1  0  0  0  0
 13  2  1  0  0  0  0
 13 12  1  0  0  0  0
 14 13  1  0  0  0  0
 15 13  1  0  0  0  0
 16 31  2  0  0  0  0
 16 17  1  0  0  0  0
 17 19  2  0  0  0  0
 18 17  1  0  0  0  0
 19 24  1  0  0  0  0
 19 20  1  0  0  0  0
 20 23  1  0  0  0  0
 20 22  1  0  0  0  0
 21 20  1  0  0  0  0
 24 25  1  0  0  0  0
 26 27  1  0  0  0  0
 26 24  2  0  0  0  0
 27 29  1  0  0  0  0
 27 28  1  0  0  0  0
 30 27  1  0  0  0  0
 31 26  1  0  0  0  0
 32 31  1  0  0  0  0
M  END
