1,2
 OpenBabel05122313053D

 38 39  0  0  0  0  0  0  0  0999 V2000
    2.0367    0.4117   -0.4690 N   0  0  0  0  0  2  0  0  0  0  0  0
   -0.6704    0.0508   -0.8418 N   0  0  0  0  0  0  0  0  0  0  0  0
   -1.0314   -0.6929   -1.4528 H   0  0  0  0  0  0  0  0  0  0  0  0
    3.3211    0.5760   -0.0781 C   0  0  0  0  0  3  0  0  0  0  0  0
    3.7145   -0.2498    0.5406 H   0  0  0  0  0  0  0  0  0  0  0  0
    4.0623    1.7000   -0.4520 C   0  0  0  0  0  0  0  0  0  0  0  0
    5.1036    1.7968   -0.1135 H   0  0  0  0  0  0  0  0  0  0  0  0
    3.4578    2.6839   -1.2486 C   0  0  0  0  0  0  0  0  0  0  0  0
    4.0141    3.5827   -1.5533 H   0  0  0  0  0  0  0  0  0  0  0  0
    2.1265    2.5051   -1.6488 C   0  0  0  0  0  0  0  0  0  0  0  0
    1.6154    3.2537   -2.2720 H   0  0  0  0  0  0  0  0  0  0  0  0
    1.4364    1.3540   -1.2456 C   0  0  0  0  0  0  0  0  0  0  0  0
    0.0250    1.0619   -1.6942 C   0  0  0  0  0  0  0  0  0  0  0  0
   -0.5722    1.9949   -1.7492 H   0  0  0  0  0  0  0  0  0  0  0  0
    0.0743    0.6511   -2.7260 H   0  0  0  0  0  0  0  0  0  0  0  0
   -1.8106    0.5190   -0.0674 C   0  0  0  0  0  0  0  0  0  0  0  0
   -1.6426    1.4356    1.0026 C   0  0  0  0  0  0  0  0  0  0  0  0
   -0.2660    1.8791    1.4500 C   0  0  0  0  0  0  0  0  0  0  0  0
    0.3694    0.9645    1.5127 H   0  0  0  0  0  0  0  0  0  0  0  0
    0.2077    2.4977    0.6559 H   0  0  0  0  0  0  0  0  0  0  0  0
   -0.1902    2.6382    2.7723 C   0  0  0  0  0  0  0  0  0  0  0  0
   -0.7290    3.6070    2.7361 H   0  0  0  0  0  0  0  0  0  0  0  0
    0.8661    2.8571    3.0240 H   0  0  0  0  0  0  0  0  0  0  0  0
   -0.6154    2.0434    3.6056 H   0  0  0  0  0  0  0  0  0  0  0  0
   -2.8001    1.8676    1.6771 C   0  0  0  0  0  0  0  0  0  0  0  0
   -2.7004    2.5756    2.5110 H   0  0  0  0  0  0  0  0  0  0  0  0
   -4.0719    1.3983    1.3256 C   0  0  0  0  0  0  0  0  0  0  0  0
   -4.9586    1.7498    1.8740 H   0  0  0  0  0  0  0  0  0  0  0  0
   -4.2068    0.4626    0.2956 C   0  0  0  0  0  0  0  0  0  0  0  0
   -5.1994    0.0648    0.0337 H   0  0  0  0  0  0  0  0  0  0  0  0
   -3.0840    0.0017   -0.4150 C   0  0  0  0  0  0  0  0  0  0  0  0
   -3.2622   -1.0166   -1.5236 C   0  0  0  0  0  0  0  0  0  0  0  0
   -2.4910   -1.8147   -1.4222 H   0  0  0  0  0  0  0  0  0  0  0  0
   -4.2215   -1.5438   -1.3486 H   0  0  0  0  0  0  0  0  0  0  0  0
   -3.2756   -0.4173   -2.9391 C   0  0  0  0  0  0  0  0  0  0  0  0
   -4.0848    0.3329   -3.0443 H   0  0  0  0  0  0  0  0  0  0  0  0
   -3.4349   -1.2046   -3.7028 H   0  0  0  0  0  0  0  0  0  0  0  0
   -2.3254    0.0993   -3.1913 H   0  0  0  0  0  0  0  0  0  0  0  0
  1  4  1  0  0  0  0
  2 16  1  0  0  0  0
  3  2  1  0  0  0  0
  4  5  1  0  0  0  0
  6  7  1  0  0  0  0
  6  4  1  0  0  0  0
  8  6  2  0  0  0  0
  9  8  1  0  0  0  0
 10  8  1  0  0  0  0
 10 12  2  0  0  0  0
 11 10  1  0  0  0  0
 12  1  1  0  0  0  0
 13 12  1  0  0  0  0
 13  2  1  0  0  0  0
 14 13  1  0  0  0  0
 15 13  1  0  0  0  0
 16 17  1  0  0  0  0
 17 18  1  0  0  0  0
 17 25  2  0  0  0  0
 18 19  1  0  0  0  0
 18 21  1  0  0  0  0
 20 18  1  0  0  0  0
 21 23  1  0  0  0  0
 21 24  1  0  0  0  0
 22 21  1  0  0  0  0
 25 26  1  0  0  0  0
 27 25  1  0  0  0  0
 27 28  1  0  0  0  0
 29 27  2  0  0  0  0
 30 29  1  0  0  0  0
 31 16  2  0  0  0  0
 31 29  1  0  0  0  0
 32 33  1  0  0  0  0
 32 34  1  0  0  0  0
 32 31  1  0  0  0  0
 35 32  1  0  0  0  0
 36 35  1  0  0  0  0
 37 35  1  0  0  0  0
 38 35  1  0  0  0  0
M  END
