3,13
 OpenBabel05122313053D

 20 21  0  0  0  0  0  0  0  0999 V2000
   -5.5515   -1.0053    0.0479 O   0  0  0  0  0  0  0  0  0  0  0  0
   -1.6209    2.8219    0.0390 N   0  0  0  0  0  2  0  0  0  0  0  0
   -1.2932    0.5817   -0.0281 N   0  0  0  0  0  0  0  0  0  0  0  0
   -5.2335    1.1672    0.0537 O   0  0  0  0  0  0  0  0  0  0  0  0
   -2.8057    2.1466    0.0370 N   0  0  0  0  0  0  0  0  0  0  0  0
   -3.7260    2.5956    0.0643 H   0  0  0  0  0  0  0  0  0  0  0  0
   -4.8271   -0.0145    0.0364 N   0  0  0  0  0  0  0  0  0  0  0  0
   -2.6267    0.7902    0.0031 C   0  0  0  0  0  0  0  0  0  0  0  0
   -3.4759   -0.2605    0.0011 N   0  0  0  0  0  0  0  0  0  0  0  0
   -0.7311    1.8392    0.0010 C   0  0  0  0  0  0  0  0  0  0  0  0
    5.5517   -1.0053   -0.0479 O   0  0  0  0  0  0  0  0  0  0  0  0
    1.6209    2.8218   -0.0389 N   0  0  0  0  0  2  0  0  0  0  0  0
    1.2932    0.5816    0.0284 N   0  0  0  0  0  0  0  0  0  0  0  0
    5.2338    1.1672   -0.0538 O   0  0  0  0  0  0  0  0  0  0  0  0
    2.8056    2.1465   -0.0371 N   0  0  0  0  0  0  0  0  0  0  0  0
    3.7259    2.5955   -0.0646 H   0  0  0  0  0  0  0  0  0  0  0  0
    4.8273   -0.0145   -0.0365 N   0  0  0  0  0  0  0  0  0  0  0  0
    2.6267    0.7901   -0.0030 C   0  0  0  0  0  0  0  0  0  0  0  0
    3.4760   -0.2605   -0.0010 N   0  0  0  0  0  0  0  0  0  0  0  0
    0.7311    1.8391   -0.0008 C   0  0  0  0  0  0  0  0  0  0  0  0
  3 10  2  0  0  0  0
  3  8  1  0  0  0  0
  5  2  1  0  0  0  0
  5  6  1  0  0  0  0
  7  1  2  0  0  0  0
  7  4  2  0  0  0  0
  8  5  1  0  0  0  0
  9  8  2  0  0  0  0
  9  7  1  0  0  0  0
 10  2  1  0  0  0  0
 11 17  2  0  0  0  0
 12 15  1  0  0  0  0
 12 20  1  0  0  0  0
 14 17  2  0  0  0  0
 15 18  1  0  0  0  0
 16 15  1  0  0  0  0
 17 19  1  0  0  0  0
 18 19  2  0  0  0  0
 18 13  1  0  0  0  0
 20 10  1  0  0  0  0
 20 13  2  0  0  0  0
M  END
