48,49
 OpenBabel05122313053D

 53 57  0  0  1  0  0  0  0  0999 V2000
   -1.0040    4.5068    1.8560 S   0  0  0  0  0  0  0  0  0  0  0  0
   -0.2488    5.3263   -1.2287 S   0  0  0  0  0  0  0  0  0  0  0  0
    0.6284    1.9643    1.4280 S   0  0  0  0  0  0  0  0  0  0  0  0
    1.1633    2.6613   -1.4093 S   0  0  0  0  0  0  0  0  0  0  0  0
    3.1018   -0.1958    1.3866 S   0  0  0  0  0  0  0  0  0  0  0  0
    3.6647    0.5027   -1.4513 S   0  0  0  0  0  0  0  0  0  0  0  0
   -2.6999   -2.7167    1.9628 C   0  0  0  0  0  3  0  0  0  0  0  0
   -2.4687   -3.6960    1.5206 H   0  0  0  0  0  0  0  0  0  0  0  0
   -3.0526   -2.5930    3.3054 C   0  0  0  0  0  0  0  0  0  0  0  0
   -3.0960   -3.4939    3.9348 H   0  0  0  0  0  0  0  0  0  0  0  0
   -3.3594   -1.3226    3.8379 C   0  0  0  0  0  0  0  0  0  0  0  0
   -3.7672   -1.1565    5.2750 C   0  0  0  0  0  0  0  0  0  0  0  0
   -3.8905   -0.0917    5.5489 H   0  0  0  0  0  0  0  0  0  0  0  0
   -3.0169   -1.6070    5.9564 H   0  0  0  0  0  0  0  0  0  0  0  0
   -4.7292   -1.6747    5.4707 H   0  0  0  0  0  0  0  0  0  0  0  0
   -3.2755   -0.2318    2.9598 C   0  0  0  0  0  0  0  0  0  0  0  0
   -3.5107    0.7766    3.3268 H   0  0  0  0  0  0  0  0  0  0  0  0
   -2.9122   -0.4177    1.6143 C   0  0  0  0  0  0  0  0  0  0  0  0
   -2.7716    0.6886    0.6495 C   0  0  1  0  0  3  0  0  0  0  0  0
   -2.7980    2.0400    1.0214 C   0  0  0  0  0  0  0  0  0  0  0  0
   -2.9221    2.3141    2.0775 H   0  0  0  0  0  0  0  0  0  0  0  0
   -2.3308    1.2786   -1.5661 C   0  0  0  0  0  0  0  0  0  0  0  0
   -2.1364    0.9331   -2.5908 H   0  0  0  0  0  0  0  0  0  0  0  0
   -2.3476    2.6399   -1.2572 C   0  0  0  0  0  0  0  0  0  0  0  0
   -2.1303    3.3595   -2.0573 H   0  0  0  0  0  0  0  0  0  0  0  0
   -2.5415    3.0461    0.0751 C   0  0  0  0  0  0  0  0  0  0  0  0
   -2.3487    4.4802    0.5309 C   0  0  2  0  0  0  0  0  0  0  0  0
   -3.2524    4.8456    1.0651 H   0  0  0  0  0  0  0  0  0  0  0  0
   -1.9898    5.4766   -0.5566 C   0  0  0  0  0  0  0  0  0  0  0  0
   -2.0572    6.5066   -0.1601 H   0  0  0  0  0  0  0  0  0  0  0  0
   -2.6818    5.3840   -1.4197 H   0  0  0  0  0  0  0  0  0  0  0  0
    0.3796    3.9072   -0.4162 C   0  0  0  0  0  0  0  0  0  0  0  0
    0.1456    3.5888    0.8994 C   0  0  0  0  0  0  0  0  0  0  0  0
    1.6458    1.6938    0.0002 C   0  0  0  0  0  0  0  0  0  0  0  0
    2.6777    0.8011   -0.0143 C   0  0  0  0  0  0  0  0  0  0  0  0
    4.9346   -0.3264   -0.5695 C   0  0  0  0  0  0  0  0  0  0  0  0
    4.6747   -0.6778    0.7284 C   0  0  0  0  0  0  0  0  0  0  0  0
    6.1471   -0.6778   -1.3778 C   0  0  0  0  0  0  0  0  0  0  0  0
    8.4959   -0.7720   -1.3421 C   0  0  0  0  0  0  0  0  0  0  0  0
    8.6125   -1.8620   -1.1758 H   0  0  0  0  0  0  0  0  0  0  0  0
    9.3082   -0.2225   -0.8351 H   0  0  0  0  0  0  0  0  0  0  0  0
    8.4978   -0.5684   -2.4308 H   0  0  0  0  0  0  0  0  0  0  0  0
    5.5262   -1.5715    1.5540 C   0  0  0  0  0  0  0  0  0  0  0  0
    5.7601   -2.4819    3.7171 C   0  0  0  0  0  0  0  0  0  0  0  0
    5.7167   -3.5234    3.3395 H   0  0  0  0  0  0  0  0  0  0  0  0
    5.2505   -2.4008    4.6932 H   0  0  0  0  0  0  0  0  0  0  0  0
    6.8255   -2.1901    3.8107 H   0  0  0  0  0  0  0  0  0  0  0  0
   -2.6301   -1.6584    1.1268 N   0  0  0  0  0  2  0  0  0  0  0  0
   -2.5066    0.3184   -0.6373 N   0  0  0  0  0  2  0  0  0  0  0  0
    7.2746   -0.3251   -0.7382 O   0  0  0  0  0  0  0  0  0  0  0  0
    6.0848   -1.1702   -2.4881 O   0  0  0  0  0  0  0  0  0  0  0  0
    6.4722   -2.2292    1.1607 O   0  0  0  0  0  0  0  0  0  0  0  0
    5.0684   -1.5920    2.8339 O   0  0  0  0  0  0  0  0  0  0  0  0
  2 29  1  0  0  0  0
  2 32  1  0  0  0  0
  4 32  1  0  0  0  0
  4 34  1  0  0  0  0
  6 36  1  0  0  0  0
  6 35  1  0  0  0  0
  7  9  1  0  0  0  0
  8  7  1  0  0  0  0
  9 11  2  0  0  0  0
  9 10  1  0  0  0  0
 11 12  1  0  0  0  0
 12 15  1  0  0  0  0
 12 13  1  0  0  0  0
 12 14  1  0  0  0  0
 16 17  1  0  0  0  0
 16 11  1  0  0  0  0
 18 16  2  0  0  0  0
 19 20  1  0  0  0  0
 19 18  1  1  0  0  0
 20 21  1  0  0  0  0
 22 24  2  0  0  0  0
 22 49  1  0  0  0  0
 23 22  1  0  0  0  0
 24 26  1  0  0  0  0
 25 24  1  0  0  0  0
 26 27  1  0  0  0  0
 26 20  2  0  0  0  0
 27 28  1  1  0  0  0
 27  1  1  0  0  0  0
 29 30  1  0  0  0  0
 29 27  1  0  0  0  0
 31 29  1  0  0  0  0
 32 33  2  0  0  0  0
 33  3  1  0  0  0  0
 33  1  1  0  0  0  0
 34  3  1  0  0  0  0
 35 34  2  0  0  0  0
 35  5  1  0  0  0  0
 36 37  2  0  0  0  0
 37  5  1  0  0  0  0
 37 43  1  0  0  0  0
 38 50  1  0  0  0  0
 38 36  1  0  0  0  0
 39 40  1  0  0  0  0
 39 41  1  0  0  0  0
 39 50  1  0  0  0  0
 42 39  1  0  0  0  0
 43 53  1  0  0  0  0
 44 47  1  0  0  0  0
 44 46  1  0  0  0  0
 45 44  1  0  0  0  0
 48 18  1  0  0  0  0
 48  7  1  0  0  0  0
 49 19  1  0  0  0  0
 51 38  2  0  0  0  0
 52 43  2  0  0  0  0
 53 44  1  0  0  0  0
M  END
