1,2
 OpenBabel05122313053D

 49 49  0  0  0  0  0  0  0  0999 V2000
   -0.1972    1.1131   -0.8792 N   0  0  0  0  0  2  0  0  0  0  0  0
   -0.1989   -1.1110   -0.8810 N   0  0  0  0  0  2  0  0  0  0  0  0
   -0.9342    0.0014   -0.6202 C   0  0  0  0  0  3  0  0  0  0  0  0
   -0.5837    2.5306   -0.7426 C   0  0  0  0  0  0  0  0  0  0  0  0
    0.5860    3.3290   -1.3431 C   0  0  0  0  0  0  0  0  0  0  0  0
   -0.7899    2.9442    0.7278 C   0  0  0  0  0  0  0  0  0  0  0  0
   -1.8485    2.8706   -1.5547 C   0  0  0  0  0  0  0  0  0  0  0  0
   -2.3401    0.0017   -0.0880 C   0  0  0  0  0  0  0  0  0  0  0  0
   -2.5881    0.0032    1.3118 C   0  0  0  0  0  0  0  0  0  0  0  0
   -3.9203    0.0079    1.7632 C   0  0  0  0  0  0  0  0  0  0  0  0
   -5.0138    0.0089    0.8799 C   0  0  0  0  0  0  0  0  0  0  0  0
   -4.7412    0.0095   -0.4985 C   0  0  0  0  0  0  0  0  0  0  0  0
   -3.4279    0.0051   -1.0016 C   0  0  0  0  0  0  0  0  0  0  0  0
   -1.4783    0.0026    2.3352 C   0  0  0  0  0  0  0  0  0  0  0  0
   -6.4297   -0.0181    1.3983 C   0  0  0  0  0  0  0  0  0  0  0  0
   -3.2260    0.0068   -2.4991 C   0  0  0  0  0  0  0  0  0  0  0  0
   -0.5882   -2.5278   -0.7464 C   0  0  0  0  0  0  0  0  0  0  0  0
    0.5803   -3.3279   -1.3469 C   0  0  0  0  0  0  0  0  0  0  0  0
   -1.8532   -2.8640   -1.5599 C   0  0  0  0  0  0  0  0  0  0  0  0
   -0.7961   -2.9425    0.7234 C   0  0  0  0  0  0  0  0  0  0  0  0
    0.3962    4.4190   -1.2777 H   0  0  0  0  0  0  0  0  0  0  0  0
    1.5180    3.0924   -0.8018 H   0  0  0  0  0  0  0  0  0  0  0  0
    0.7333    3.0524   -2.4056 H   0  0  0  0  0  0  0  0  0  0  0  0
   -0.8827    4.0460    0.8146 H   0  0  0  0  0  0  0  0  0  0  0  0
    0.0724    2.6150    1.3392 H   0  0  0  0  0  0  0  0  0  0  0  0
   -1.7110    2.4935    1.1432 H   0  0  0  0  0  0  0  0  0  0  0  0
   -1.9963    3.9693   -1.5615 H   0  0  0  0  0  0  0  0  0  0  0  0
   -1.7406    2.5340   -2.6041 H   0  0  0  0  0  0  0  0  0  0  0  0
   -2.7573    2.4138   -1.1223 H   0  0  0  0  0  0  0  0  0  0  0  0
   -4.1072    0.0127    2.8499 H   0  0  0  0  0  0  0  0  0  0  0  0
   -5.5807    0.0156   -1.2132 H   0  0  0  0  0  0  0  0  0  0  0  0
   -0.4740    0.0024    1.8673 H   0  0  0  0  0  0  0  0  0  0  0  0
   -1.5458    0.8939    2.9921 H   0  0  0  0  0  0  0  0  0  0  0  0
   -1.5463   -0.8894    2.9910 H   0  0  0  0  0  0  0  0  0  0  0  0
   -6.5434    0.6065    2.3069 H   0  0  0  0  0  0  0  0  0  0  0  0
   -7.1507    0.3421    0.6386 H   0  0  0  0  0  0  0  0  0  0  0  0
   -6.7326   -1.0506    1.6767 H   0  0  0  0  0  0  0  0  0  0  0  0
   -2.1579    0.0065   -2.7830 H   0  0  0  0  0  0  0  0  0  0  0  0
   -3.6998    0.8986   -2.9574 H   0  0  0  0  0  0  0  0  0  0  0  0
   -3.7007   -0.8836   -2.9593 H   0  0  0  0  0  0  0  0  0  0  0  0
    1.5124   -3.0936   -0.8049 H   0  0  0  0  0  0  0  0  0  0  0  0
    0.7288   -3.0506   -2.4091 H   0  0  0  0  0  0  0  0  0  0  0  0
    0.3883   -4.4176   -1.2828 H   0  0  0  0  0  0  0  0  0  0  0  0
   -1.7437   -2.5259   -2.6087 H   0  0  0  0  0  0  0  0  0  0  0  0
   -2.0032   -3.9625   -1.5687 H   0  0  0  0  0  0  0  0  0  0  0  0
   -2.7613   -2.4059   -1.1277 H   0  0  0  0  0  0  0  0  0  0  0  0
    0.0670   -2.6164    1.3353 H   0  0  0  0  0  0  0  0  0  0  0  0
   -0.8921   -4.0441    0.8091 H   0  0  0  0  0  0  0  0  0  0  0  0
   -1.7160   -2.4895    1.1391 H   0  0  0  0  0  0  0  0  0  0  0  0
  1  4  1  0  0  0  0
  1  3  1  0  0  0  0
  2 17  1  0  0  0  0
  2  3  1  0  0  0  0
  3  8  1  0  0  0  0
  4  6  1  0  0  0  0
  5 21  1  0  0  0  0
  5 22  1  0  0  0  0
  5  4  1  0  0  0  0
  6 24  1  0  0  0  0
  6 26  1  0  0  0  0
  6 25  1  0  0  0  0
  7 29  1  0  0  0  0
  7  4  1  0  0  0  0
  8  9  1  0  0  0  0
  9 10  2  0  0  0  0
  9 14  1  0  0  0  0
 10 30  1  0  0  0  0
 11 15  1  0  0  0  0
 11 10  1  0  0  0  0
 12 11  2  0  0  0  0
 13 12  1  0  0  0  0
 13  8  2  0  0  0  0
 14 34  1  0  0  0  0
 14 33  1  0  0  0  0
 15 37  1  0  0  0  0
 15 35  1  0  0  0  0
 16 13  1  0  0  0  0
 17 20  1  0  0  0  0
 18 43  1  0  0  0  0
 18 41  1  0  0  0  0
 18 17  1  0  0  0  0
 19 46  1  0  0  0  0
 19 17  1  0  0  0  0
 20 48  1  0  0  0  0
 20 49  1  0  0  0  0
 20 47  1  0  0  0  0
 23  5  1  0  0  0  0
 27  7  1  0  0  0  0
 28  7  1  0  0  0  0
 31 12  1  0  0  0  0
 32 14  1  0  0  0  0
 36 15  1  0  0  0  0
 38 16  1  0  0  0  0
 39 16  1  0  0  0  0
 40 16  1  0  0  0  0
 42 18  1  0  0  0  0
 44 19  1  0  0  0  0
 45 19  1  0  0  0  0
M  END
