4,9
 OpenBabel05122313053D

 30 32  0  0  1  0  0  0  0  0999 V2000
    0.8971    0.6124    0.1394 N   0  0  0  0  0  0  0  0  0  0  0  0
    0.7650    3.0646    0.0841 C   0  0  0  0  0  0  0  0  0  0  0  0
    1.8569    3.1553    0.0191 H   0  0  0  0  0  0  0  0  0  0  0  0
   -1.1883    1.6300    0.2154 N   0  0  0  0  0  2  0  0  0  0  0  0
    1.0861   -1.5554    0.1997 N   0  0  0  0  0  2  0  0  0  0  0  0
    6.6573    0.1752    1.1477 C   0  0  0  0  0  0  0  0  0  0  0  0
    7.1681    0.4931    2.0694 H   0  0  0  0  0  0  0  0  0  0  0  0
    0.1536    1.8039    0.1377 C   0  0  2  0  0  3  0  0  0  0  0  0
    0.2272   -0.5818    0.1896 N   0  0  0  0  0  2  0  0  0  0  0  0
    2.2439    0.3648    0.1162 C   0  0  0  0  0  0  0  0  0  0  0  0
    3.0049    1.1470    0.0759 H   0  0  0  0  0  0  0  0  0  0  0  0
    2.3481   -1.0204    0.1547 C   0  0  0  0  0  0  0  0  0  0  0  0
   -0.0577    4.1945    0.1062 C   0  0  0  0  0  0  0  0  0  0  0  0
    0.3866    5.1992    0.0590 H   0  0  0  0  0  0  0  0  0  0  0  0
    5.3557   -0.6555   -1.1917 C   0  0  0  0  0  0  0  0  0  0  0  0
    4.8464   -0.9827   -2.1122 H   0  0  0  0  0  0  0  0  0  0  0  0
    6.5000    0.1522   -1.2748 C   0  0  0  0  0  0  0  0  0  0  0  0
    6.8870    0.4522   -2.2606 H   0  0  0  0  0  0  0  0  0  0  0  0
    4.8492   -1.0589    0.0602 C   0  0  0  0  0  0  0  0  0  0  0  0
    5.5122   -0.6322    1.2279 C   0  0  0  0  0  0  0  0  0  0  0  0
    5.1269   -0.9423    2.2124 H   0  0  0  0  0  0  0  0  0  0  0  0
    7.1536    0.5705   -0.1046 C   0  0  0  0  0  0  0  0  0  0  0  0
    8.0541    1.1999   -0.1690 H   0  0  0  0  0  0  0  0  0  0  0  0
    3.5802   -1.8776    0.1477 C   0  0  0  0  0  0  0  0  0  0  0  0
    3.5053   -2.5839   -0.7057 H   0  0  0  0  0  0  0  0  0  0  0  0
    3.5776   -2.5046    1.0640 H   0  0  0  0  0  0  0  0  0  0  0  0
   -1.4500    4.0259    0.1863 C   0  0  0  0  0  0  0  0  0  0  0  0
   -2.1314    4.8874    0.2030 H   0  0  0  0  0  0  0  0  0  0  0  0
   -1.9721    2.7325    0.2376 C   0  0  0  0  0  0  0  0  0  0  0  0
   -3.0538    2.5454    0.2894 H   0  0  0  0  0  0  0  0  0  0  0  0
  1  9  1  0  0  0  0
  2 13  2  0  0  0  0
  2  8  1  0  0  0  0
  3  2  1  0  0  0  0
  4 29  1  0  0  0  0
  6 20  1  0  0  0  0
  6  7  1  0  0  0  0
  8  1  1  1  0  0  0
  8  4  1  0  0  0  0
  9  5  1  0  0  0  0
 10  1  1  0  0  0  0
 10 12  2  0  0  0  0
 11 10  1  0  0  0  0
 12  5  1  0  0  0  0
 13 27  1  0  0  0  0
 14 13  1  0  0  0  0
 15 19  1  0  0  0  0
 16 15  1  0  0  0  0
 17 15  2  0  0  0  0
 17 22  1  0  0  0  0
 18 17  1  0  0  0  0
 19 24  1  0  0  0  0
 19 20  2  0  0  0  0
 20 21  1  0  0  0  0
 22  6  2  0  0  0  0
 23 22  1  0  0  0  0
 24 12  1  0  0  0  0
 24 26  1  0  0  0  0
 25 24  1  0  0  0  0
 27 28  1  0  0  0  0
 27 29  2  0  0  0  0
 29 30  1  0  0  0  0
M  END
