3,4
 OpenBabel05122313053D

 46 48  0  0  0  0  0  0  0  0999 V2000
    7.0290    1.0400    0.4189 C   0  0  0  0  0  0  0  0  0  0  0  0
    6.4756    1.8688    0.8851 H   0  0  0  0  0  0  0  0  0  0  0  0
   -1.7042    0.9192   -0.5643 N   0  0  0  0  0  2  0  0  0  0  0  0
   -4.3602    0.7661   -0.6737 N   0  0  0  0  0  2  0  0  0  0  0  0
   -0.3011    0.9314   -0.4288 C   0  0  0  0  0  0  0  0  0  0  0  0
   -3.7941    2.0005   -0.8677 C   0  0  0  0  0  0  0  0  0  0  0  0
    0.3587    1.9620    0.2777 C   0  0  0  0  0  0  0  0  0  0  0  0
   -0.2345    2.7420    0.7764 H   0  0  0  0  0  0  0  0  0  0  0  0
   -2.3533    2.0393   -0.7855 C   0  0  0  0  0  0  0  0  0  0  0  0
   -1.8166    2.9882   -0.9593 H   0  0  0  0  0  0  0  0  0  0  0  0
   -4.5802    3.1339   -1.1607 C   0  0  0  0  0  0  0  0  0  0  0  0
   -4.0875    4.1053   -1.3105 H   0  0  0  0  0  0  0  0  0  0  0  0
   -5.9670    2.9997   -1.2478 C   0  0  0  0  0  0  0  0  0  0  0  0
   -6.6008    3.8710   -1.4686 H   0  0  0  0  0  0  0  0  0  0  0  0
   -5.7004    0.6453   -0.7630 C   0  0  0  0  0  0  0  0  0  0  0  0
   -6.1075   -0.3611   -0.5883 H   0  0  0  0  0  0  0  0  0  0  0  0
    3.9807    0.9391    0.0109 C   0  0  0  0  0  0  0  0  0  0  0  0
    4.3568    1.7987    0.5911 H   0  0  0  0  0  0  0  0  0  0  0  0
    1.7467    1.9395    0.4095 C   0  0  0  0  0  0  0  0  0  0  0  0
    2.2458    2.7301    0.9911 H   0  0  0  0  0  0  0  0  0  0  0  0
    1.8500   -0.1207   -0.8661 C   0  0  0  0  0  0  0  0  0  0  0  0
    2.4171   -0.9437   -1.3243 H   0  0  0  0  0  0  0  0  0  0  0  0
    7.1043   -0.9997   -0.8661 C   0  0  0  0  0  0  0  0  0  0  0  0
    6.5950   -1.7988   -1.4281 H   0  0  0  0  0  0  0  0  0  0  0  0
    4.8801    0.0252   -0.4635 C   0  0  0  0  0  0  0  0  0  0  0  0
    4.4962   -0.8330   -1.0419 H   0  0  0  0  0  0  0  0  0  0  0  0
    2.5369    0.9075   -0.1625 C   0  0  0  0  0  0  0  0  0  0  0  0
   -6.5368    1.7300   -1.0464 C   0  0  0  0  0  0  0  0  0  0  0  0
   -7.6231    1.5745   -1.1014 H   0  0  0  0  0  0  0  0  0  0  0  0
    0.4646   -0.1214   -0.9831 C   0  0  0  0  0  0  0  0  0  0  0  0
   -0.0518   -0.9233   -1.5288 H   0  0  0  0  0  0  0  0  0  0  0  0
    6.3229    0.0377   -0.2966 C   0  0  0  0  0  0  0  0  0  0  0  0
    9.1917   -0.0363   -0.0202 C   0  0  0  0  0  0  0  0  0  0  0  0
    8.4907   -1.0468   -0.7395 C   0  0  0  0  0  0  0  0  0  0  0  0
    9.0359   -1.8783   -1.2033 H   0  0  0  0  0  0  0  0  0  0  0  0
    8.4125    1.0118    0.5572 C   0  0  0  0  0  0  0  0  0  0  0  0
    8.9007    1.8146    1.1242 H   0  0  0  0  0  0  0  0  0  0  0  0
   10.5641   -0.0678    0.1151 N   0  0  0  0  0  0  0  0  0  0  0  0
   11.2459    0.9696    0.8634 C   0  0  0  0  0  0  0  0  0  0  0  0
   12.3330    0.7736    0.8535 H   0  0  0  0  0  0  0  0  0  0  0  0
   10.9162    1.0067    1.9264 H   0  0  0  0  0  0  0  0  0  0  0  0
   11.0789    1.9793    0.4256 H   0  0  0  0  0  0  0  0  0  0  0  0
   11.3251   -1.1521   -0.4731 C   0  0  0  0  0  0  0  0  0  0  0  0
   12.3992   -1.0023   -0.2632 H   0  0  0  0  0  0  0  0  0  0  0  0
   11.1976   -1.2000   -1.5780 H   0  0  0  0  0  0  0  0  0  0  0  0
   11.0315   -2.1433   -0.0593 H   0  0  0  0  0  0  0  0  0  0  0  0
  1 36  1  0  0  0  0
  1  2  1  0  0  0  0
  3  5  1  0  0  0  0
  5  7  1  0  0  0  0
  6  9  2  0  0  0  0
  6  4  1  0  0  0  0
  7 19  2  0  0  0  0
  7  8  1  0  0  0  0
  9  3  1  0  0  0  0
 10  9  1  0  0  0  0
 11  6  1  0  0  0  0
 12 11  1  0  0  0  0
 13 11  2  0  0  0  0
 13 28  1  0  0  0  0
 14 13  1  0  0  0  0
 15  4  1  0  0  0  0
 15 16  1  0  0  0  0
 17 18  1  0  0  0  0
 19 20  1  0  0  0  0
 21 27  2  0  0  0  0
 22 21  1  0  0  0  0
 23 34  2  0  0  0  0
 23 32  1  0  0  0  0
 24 23  1  0  0  0  0
 25 32  1  0  0  0  0
 25 17  2  0  0  0  0
 26 25  1  0  0  0  0
 27 17  1  0  0  0  0
 27 19  1  0  0  0  0
 28 15  2  0  0  0  0
 29 28  1  0  0  0  0
 30 21  1  0  0  0  0
 30  5  2  0  0  0  0
 31 30  1  0  0  0  0
 32  1  2  0  0  0  0
 33 38  1  0  0  0  0
 33 36  2  0  0  0  0
 34 33  1  0  0  0  0
 35 34  1  0  0  0  0
 36 37  1  0  0  0  0
 38 39  1  0  0  0  0
 39 41  1  0  0  0  0
 40 39  1  0  0  0  0
 42 39  1  0  0  0  0
 43 44  1  0  0  0  0
 43 46  1  0  0  0  0
 43 38  1  0  0  0  0
 45 43  1  0  0  0  0
M  END
