1,2
 OpenBabel05122313053D

 38 39  0  0  1  0  0  0  0  0999 V2000
    0.3060    0.1652   -1.3487 N   0  0  0  0  0  2  0  0  0  0  0  0
    2.4978    0.9077   -0.1713 N   0  0  0  0  0  2  0  0  0  0  0  0
    2.5536    3.0710   -1.2654 C   0  0  0  0  0  0  0  0  0  0  0  0
    2.0871    3.7769   -1.9673 H   0  0  0  0  0  0  0  0  0  0  0  0
    1.9472    1.8217   -1.0440 C   0  0  0  0  0  0  0  0  0  0  0  0
    3.6384    1.2141    0.4851 C   0  0  0  0  0  0  0  0  0  0  0  0
    4.0038    0.4236    1.1624 H   0  0  0  0  0  0  0  0  0  0  0  0
   -5.7744   -0.2491   -0.4175 O   0  0  0  0  0  0  0  0  0  0  0  0
   -5.7776   -1.1373   -0.8273 H   0  0  0  0  0  0  0  0  0  0  0  0
   -4.4445   -0.0636    0.0087 C   0  0  1  0  0  0  0  0  0  0  0  0
   -4.1754   -0.7636    0.8400 H   0  0  0  0  0  0  0  0  0  0  0  0
   -2.0385   -0.0450   -0.7035 C   0  0  1  0  0  0  0  0  0  0  0  0
   -1.7726   -0.6997    0.1551 H   0  0  0  0  0  0  0  0  0  0  0  0
   -2.4317    0.9301    1.9320 O   0  0  0  0  0  0  0  0  0  0  0  0
   -1.9627    1.3366   -0.3371 O   0  0  0  0  0  0  0  0  0  0  0  0
   -3.6802   -1.7204   -1.4942 O   0  0  0  0  0  0  0  0  0  0  0  0
   -3.3895   -1.8575   -2.4126 H   0  0  0  0  0  0  0  0  0  0  0  0
    0.7198    1.3721   -1.6577 C   0  0  0  0  0  0  0  0  0  0  0  0
    0.1354    2.0220   -2.3283 H   0  0  0  0  0  0  0  0  0  0  0  0
   -3.4747   -0.3560   -1.1463 C   0  0  1  0  0  0  0  0  0  0  0  0
   -3.7423    0.3239   -1.9921 H   0  0  0  0  0  0  0  0  0  0  0  0
   -2.7733    1.6608    0.7809 C   0  0  1  0  0  0  0  0  0  0  0  0
   -2.6037    2.7509    0.9448 H   0  0  0  0  0  0  0  0  0  0  0  0
   -4.2675    1.3724    0.5274 C   0  0  2  0  0  0  0  0  0  0  0  0
   -4.6261    2.0616   -0.2668 H   0  0  0  0  0  0  0  0  0  0  0  0
   -5.0193    1.6468    1.6850 O   0  0  0  0  0  0  0  0  0  0  0  0
   -4.5365    1.1952    2.4074 H   0  0  0  0  0  0  0  0  0  0  0  0
    3.7347    3.3873   -0.5864 C   0  0  0  0  0  0  0  0  0  0  0  0
    4.2260    4.3583   -0.7449 H   0  0  0  0  0  0  0  0  0  0  0  0
    4.2810    2.4424    0.2999 C   0  0  0  0  0  0  0  0  0  0  0  0
    5.2076    2.6492    0.8536 H   0  0  0  0  0  0  0  0  0  0  0  0
   -1.0034   -0.2777   -1.8065 C   0  0  0  0  0  0  0  0  0  0  0  0
   -0.9570   -1.3680   -1.9962 H   0  0  0  0  0  0  0  0  0  0  0  0
   -1.2863    0.2808   -2.7248 H   0  0  0  0  0  0  0  0  0  0  0  0
   -1.1244    1.1750    2.4356 C   0  0  0  0  0  0  0  0  0  0  0  0
   -0.9498    2.2657    2.5856 H   0  0  0  0  0  0  0  0  0  0  0  0
   -0.3388    0.7725    1.7574 H   0  0  0  0  0  0  0  0  0  0  0  0
   -1.0482    0.6550    3.4085 H   0  0  0  0  0  0  0  0  0  0  0  0
  2  6  1  0  0  0  0
  3  5  1  0  0  0  0
  3 28  2  0  0  0  0
  4  3  1  0  0  0  0
  5  2  1  0  0  0  0
  6  7  1  0  0  0  0
  8 10  1  0  0  0  0
  9  8  1  0  0  0  0
 10 24  1  0  0  0  0
 10 11  1  1  0  0  0
 12 15  1  0  0  0  0
 12 13  1  1  0  0  0
 14 35  1  0  0  0  0
 15 22  1  0  0  0  0
 16 20  1  0  0  0  0
 17 16  1  0  0  0  0
 18  1  1  0  0  0  0
 18  5  2  0  0  0  0
 19 18  1  0  0  0  0
 20 21  1  6  0  0  0
 20 12  1  0  0  0  0
 20 10  1  0  0  0  0
 22 23  1  1  0  0  0
 22 14  1  0  0  0  0
 24 25  1  6  0  0  0
 24 22  1  0  0  0  0
 24 26  1  0  0  0  0
 26 27  1  0  0  0  0
 28 30  1  0  0  0  0
 29 28  1  0  0  0  0
 30  6  2  0  0  0  0
 30 31  1  0  0  0  0
 32  1  1  0  0  0  0
 32 12  1  0  0  0  0
 33 32  1  0  0  0  0
 34 32  1  0  0  0  0
 35 36  1  0  0  0  0
 35 38  1  0  0  0  0
 37 35  1  0  0  0  0
M  END
