2,5
 OpenBabel05122313053D

 37 40  0  0  0  0  0  0  0  0999 V2000
   -2.1903   -1.0756   -1.5474 N   0  0  0  0  0  0  0  0  0  0  0  0
    0.0343   -0.6785   -0.8337 N   0  0  0  0  0  2  0  0  0  0  0  0
   -2.0921    2.3709   -0.4725 N   0  0  0  0  0  0  0  0  0  0  0  0
   -3.5888    0.8998   -1.3124 N   0  0  0  0  0  0  0  0  0  0  0  0
    1.0639    1.1031   -0.1225 N   0  0  0  0  0  2  0  0  0  0  0  0
   -0.9309   -1.4609   -1.3378 C   0  0  0  0  0  3  0  0  0  0  0  0
   -0.6428   -2.4955   -1.5872 H   0  0  0  0  0  0  0  0  0  0  0  0
   -0.1367    0.6627   -0.5141 C   0  0  0  0  0  0  0  0  0  0  0  0
   -3.3448    2.1780   -0.8437 C   0  0  0  0  0  0  0  0  0  0  0  0
   -4.1440    2.9300   -0.7999 H   0  0  0  0  0  0  0  0  0  0  0  0
   -2.3934    0.2144   -1.2111 C   0  0  0  0  0  0  0  0  0  0  0  0
   -1.4651    1.1607   -0.6928 C   0  0  0  0  0  0  0  0  0  0  0  0
   -4.8585    0.3231   -1.7498 C   0  0  0  0  0  0  0  0  0  0  0  0
   -4.6014   -0.4748   -2.4743 H   0  0  0  0  0  0  0  0  0  0  0  0
   -5.4250    1.1089   -2.2863 H   0  0  0  0  0  0  0  0  0  0  0  0
   -5.6760   -0.2423   -0.6052 C   0  0  0  0  0  0  0  0  0  0  0  0
   -6.8235    0.4250   -0.1399 C   0  0  0  0  0  0  0  0  0  0  0  0
   -7.1468    1.3581   -0.6291 H   0  0  0  0  0  0  0  0  0  0  0  0
   -7.5610   -0.0912    0.9374 C   0  0  0  0  0  0  0  0  0  0  0  0
   -8.4589    0.4381    1.2908 H   0  0  0  0  0  0  0  0  0  0  0  0
   -7.1526   -1.2800    1.5604 C   0  0  0  0  0  0  0  0  0  0  0  0
   -7.7295   -1.6864    2.4051 H   0  0  0  0  0  0  0  0  0  0  0  0
   -6.0069   -1.9515    1.1010 C   0  0  0  0  0  0  0  0  0  0  0  0
   -5.6862   -2.8867    1.5851 H   0  0  0  0  0  0  0  0  0  0  0  0
   -5.2720   -1.4381    0.0236 C   0  0  0  0  0  0  0  0  0  0  0  0
   -4.3710   -1.9549   -0.3436 H   0  0  0  0  0  0  0  0  0  0  0  0
    1.4922    2.3538    0.3134 C   0  0  0  0  0  0  0  0  0  0  0  0
    0.6122    3.3738    0.7551 C   0  0  0  0  0  0  0  0  0  0  0  0
   -0.4757    3.2298    0.6893 H   0  0  0  0  0  0  0  0  0  0  0  0
    1.1324    4.5837    1.2327 C   0  0  0  0  0  0  0  0  0  0  0  0
    0.4335    5.3645    1.5714 H   0  0  0  0  0  0  0  0  0  0  0  0
    2.5171    4.8142    1.2821 C   0  0  0  0  0  0  0  0  0  0  0  0
    2.9114    5.7683    1.6624 H   0  0  0  0  0  0  0  0  0  0  0  0
    3.3903    3.8137    0.8246 C   0  0  0  0  0  0  0  0  0  0  0  0
    4.4782    3.9830    0.8317 H   0  0  0  0  0  0  0  0  0  0  0  0
    2.8871    2.5993    0.3454 C   0  0  0  0  0  0  0  0  0  0  0  0
    3.5568    1.8221   -0.0479 H   0  0  0  0  0  0  0  0  0  0  0  0
  1  6  1  0  0  0  0
  1 11  2  0  0  0  0
  2  8  1  0  0  0  0
  4 11  1  0  0  0  0
  4  9  1  0  0  0  0
  5 27  1  0  0  0  0
  6  2  1  0  0  0  0
  7  6  1  0  0  0  0
  8  5  1  0  0  0  0
  9 10  1  0  0  0  0
  9  3  2  0  0  0  0
 11 12  1  0  0  0  0
 12  8  2  0  0  0  0
 12  3  1  0  0  0  0
 13  4  1  0  0  0  0
 13 16  1  0  0  0  0
 14 13  1  0  0  0  0
 15 13  1  0  0  0  0
 16 17  2  0  0  0  0
 16 25  1  0  0  0  0
 17 19  1  0  0  0  0
 18 17  1  0  0  0  0
 19 20  1  0  0  0  0
 19 21  2  0  0  0  0
 21 22  1  0  0  0  0
 23 21  1  0  0  0  0
 23 24  1  0  0  0  0
 25 23  2  0  0  0  0
 26 25  1  0  0  0  0
 27 36  2  0  0  0  0
 27 28  1  0  0  0  0
 28 30  2  0  0  0  0
 29 28  1  0  0  0  0
 30 32  1  0  0  0  0
 30 31  1  0  0  0  0
 32 33  1  0  0  0  0
 34 35  1  0  0  0  0
 34 32  2  0  0  0  0
 36 34  1  0  0  0  0
 37 36  1  0  0  0  0
M  END
