7,16
 OpenBabel05122313053D

 76 82  0  0  1  0  0  0  0  0999 V2000
   -1.2900    1.4060    0.7017 C   0  0  0  0  0  0  0  0  0  0  0  0
   -1.7679    2.2284    1.2568 H   0  0  0  0  0  0  0  0  0  0  0  0
    4.3067   -1.0547   -0.3056 C   0  0  2  0  0  3  0  0  0  0  0  0
   -6.6069    0.8171    0.4875 C   0  0  0  0  0  0  0  0  0  0  0  0
   -6.0235    1.5818    1.0216 H   0  0  0  0  0  0  0  0  0  0  0  0
    5.3116    2.4729   -0.1764 C   0  0  1  0  0  3  0  0  0  0  0  0
    5.0386    0.0843   -0.2975 N   0  0  0  0  0  2  0  0  0  0  0  0
  -10.1999   -0.0416   -0.0302 N   0  0  0  0  0  0  0  0  0  0  0  0
    2.9019   -1.0101   -0.2333 C   0  0  0  0  0  0  0  0  0  0  0  0
    2.3423   -1.9547   -0.2427 H   0  0  0  0  0  0  0  0  0  0  0  0
   -2.1122    0.4244    0.0904 C   0  0  0  0  0  0  0  0  0  0  0  0
    7.5224    3.2020    0.0504 C   0  0  0  0  0  0  0  0  0  0  0  0
    8.5720    2.8923    0.1823 H   0  0  0  0  0  0  0  0  0  0  0  0
   -3.5608    0.5405    0.1977 C   0  0  0  0  0  0  0  0  0  0  0  0
   -3.9114    1.4163    0.7696 H   0  0  0  0  0  0  0  0  0  0  0  0
    6.6208    2.2099    0.0285 N   0  0  0  0  0  2  0  0  0  0  0  0
   -7.9957    0.8721    0.5569 C   0  0  0  0  0  0  0  0  0  0  0  0
   -8.4853    1.6698    1.1332 H   0  0  0  0  0  0  0  0  0  0  0  0
   -5.9367   -0.2086   -0.2306 C   0  0  0  0  0  0  0  0  0  0  0  0
   -4.4886   -0.3100   -0.3317 C   0  0  0  0  0  0  0  0  0  0  0  0
   -4.1322   -1.1813   -0.9080 H   0  0  0  0  0  0  0  0  0  0  0  0
  -12.1496   -1.3275   -0.7927 C   0  0  0  0  0  0  0  0  0  0  0  0
  -12.4571   -0.4701   -1.4086 H   0  0  0  0  0  0  0  0  0  0  0  0
    3.0216    1.3883   -0.1247 C   0  0  0  0  0  0  0  0  0  0  0  0
    2.5459    2.3749   -0.0576 H   0  0  0  0  0  0  0  0  0  0  0  0
   -8.7947   -0.0996   -0.0994 C   0  0  0  0  0  0  0  0  0  0  0  0
    5.0425   -2.3361   -0.3803 C   0  0  0  0  0  0  0  0  0  0  0  0
    4.8642    3.7961   -0.3599 C   0  0  0  0  0  0  0  0  0  0  0  0
    3.8040    4.0070   -0.5536 H   0  0  0  0  0  0  0  0  0  0  0  0
    6.9307   -3.6336   -1.2153 C   0  0  0  0  0  0  0  0  0  0  0  0
    7.8382   -3.6887   -1.8344 H   0  0  0  0  0  0  0  0  0  0  0  0
    5.3625   -4.6413    0.3447 C   0  0  0  0  0  0  0  0  0  0  0  0
    5.0452   -5.4966    0.9600 H   0  0  0  0  0  0  0  0  0  0  0  0
    4.6273   -3.4502    0.3803 C   0  0  0  0  0  0  0  0  0  0  0  0
    3.7527   -3.3649    1.0427 H   0  0  0  0  0  0  0  0  0  0  0  0
  -10.8680    1.2121    0.0219 C   0  0  0  0  0  0  0  0  0  0  0  0
    7.1525    4.5433   -0.1088 C   0  0  0  0  0  0  0  0  0  0  0  0
    7.9149    5.3344   -0.0791 H   0  0  0  0  0  0  0  0  0  0  0  0
  -10.5754   -2.3385    0.7680 C   0  0  0  0  0  0  0  0  0  0  0  0
   -9.6639   -2.2649    1.3787 H   0  0  0  0  0  0  0  0  0  0  0  0
  -10.9712   -1.2362   -0.0206 C   0  0  0  0  0  0  0  0  0  0  0  0
  -10.4527    2.2810   -0.8020 C   0  0  0  0  0  0  0  0  0  0  0  0
   -9.6075    2.1344   -1.4901 H   0  0  0  0  0  0  0  0  0  0  0  0
  -12.5159   -3.5994    0.0064 C   0  0  0  0  0  0  0  0  0  0  0  0
  -13.1176   -4.5202    0.0170 H   0  0  0  0  0  0  0  0  0  0  0  0
   -8.1419   -1.1285   -0.8194 C   0  0  0  0  0  0  0  0  0  0  0  0
   -8.7412   -1.8876   -1.3414 H   0  0  0  0  0  0  0  0  0  0  0  0
   -6.7496   -1.1769   -0.8741 C   0  0  0  0  0  0  0  0  0  0  0  0
   -6.2639   -1.9822   -1.4477 H   0  0  0  0  0  0  0  0  0  0  0  0
    4.4162    1.2835   -0.2068 C   0  0  0  0  0  0  0  0  0  0  0  0
    6.1957   -2.4422   -1.1869 C   0  0  0  0  0  0  0  0  0  0  0  0
    6.5257   -1.5899   -1.8001 H   0  0  0  0  0  0  0  0  0  0  0  0
    0.1020    1.3470    0.6259 C   0  0  0  0  0  0  0  0  0  0  0  0
    0.6999    2.1141    1.1406 H   0  0  0  0  0  0  0  0  0  0  0  0
  -12.6302    2.6289    0.9322 C   0  0  0  0  0  0  0  0  0  0  0  0
  -13.4821    2.7599    1.6167 H   0  0  0  0  0  0  0  0  0  0  0  0
    0.7508    0.2938   -0.0596 C   0  0  0  0  0  0  0  0  0  0  0  0
   -1.4545   -0.6283   -0.5997 C   0  0  0  0  0  0  0  0  0  0  0  0
   -2.0464   -1.4089   -1.0995 H   0  0  0  0  0  0  0  0  0  0  0  0
  -12.9164   -2.4995   -0.7699 C   0  0  0  0  0  0  0  0  0  0  0  0
  -13.8322   -2.5573   -1.3776 H   0  0  0  0  0  0  0  0  0  0  0  0
    5.7969    4.8392   -0.3182 C   0  0  0  0  0  0  0  0  0  0  0  0
    5.4673    5.8790   -0.4618 H   0  0  0  0  0  0  0  0  0  0  0  0
   -0.0647   -0.6932   -0.6674 C   0  0  0  0  0  0  0  0  0  0  0  0
    0.4050   -1.5120   -1.2326 H   0  0  0  0  0  0  0  0  0  0  0  0
  -11.3406   -3.5117    0.7710 C   0  0  0  0  0  0  0  0  0  0  0  0
  -11.0214   -4.3627    1.3917 H   0  0  0  0  0  0  0  0  0  0  0  0
  -12.2089    3.6952    0.1205 C   0  0  0  0  0  0  0  0  0  0  0  0
  -12.7312    4.6625    0.1590 H   0  0  0  0  0  0  0  0  0  0  0  0
    6.5172   -4.7348   -0.4502 C   0  0  0  0  0  0  0  0  0  0  0  0
    7.1006   -5.6678   -0.4651 H   0  0  0  0  0  0  0  0  0  0  0  0
    2.2237    0.2218   -0.1384 C   0  0  0  0  0  0  0  0  0  0  0  0
  -11.1156    3.5135   -0.7426 C   0  0  0  0  0  0  0  0  0  0  0  0
  -10.7822    4.3374   -1.3918 H   0  0  0  0  0  0  0  0  0  0  0  0
  -11.9640    1.3975    0.8925 C   0  0  0  0  0  0  0  0  0  0  0  0
  -12.2870    0.5663    1.5357 H   0  0  0  0  0  0  0  0  0  0  0  0
  1  2  1  0  0  0  0
  3 27  1  1  0  0  0
  3  7  1  0  0  0  0
  3  9  1  0  0  0  0
  4 17  1  0  0  0  0
  4  5  1  0  0  0  0
  6 50  1  6  0  0  0
  6 16  1  0  0  0  0
  7 50  1  0  0  0  0
  8 41  1  0  0  0  0
  8 36  1  0  0  0  0
  9 72  2  0  0  0  0
 10  9  1  0  0  0  0
 11 14  1  0  0  0  0
 11  1  2  0  0  0  0
 12 13  1  0  0  0  0
 14 15  1  0  0  0  0
 16 12  1  0  0  0  0
 17 18  1  0  0  0  0
 19  4  2  0  0  0  0
 20 19  1  0  0  0  0
 20 14  2  0  0  0  0
 21 20  1  0  0  0  0
 22 60  2  0  0  0  0
 22 41  1  0  0  0  0
 23 22  1  0  0  0  0
 24 25  1  0  0  0  0
 26  8  1  0  0  0  0
 26 17  2  0  0  0  0
 27 34  1  0  0  0  0
 28 62  2  0  0  0  0
 28  6  1  0  0  0  0
 29 28  1  0  0  0  0
 30 51  1  0  0  0  0
 30 70  2  0  0  0  0
 31 30  1  0  0  0  0
 32 34  2  0  0  0  0
 32 33  1  0  0  0  0
 34 35  1  0  0  0  0
 36 75  1  0  0  0  0
 37 38  1  0  0  0  0
 37 12  2  0  0  0  0
 39 66  1  0  0  0  0
 39 40  1  0  0  0  0
 41 39  2  0  0  0  0
 42 73  1  0  0  0  0
 42 36  2  0  0  0  0
 43 42  1  0  0  0  0
 44 45  1  0  0  0  0
 44 66  2  0  0  0  0
 46 26  1  0  0  0  0
 47 46  1  0  0  0  0
 48 46  2  0  0  0  0
 48 19  1  0  0  0  0
 49 48  1  0  0  0  0
 50 24  2  0  0  0  0
 51 27  2  0  0  0  0
 52 51  1  0  0  0  0
 53  1  1  0  0  0  0
 53 54  1  0  0  0  0
 55 56  1  0  0  0  0
 57 53  2  0  0  0  0
 58 11  1  0  0  0  0
 59 58  1  0  0  0  0
 60 44  1  0  0  0  0
 61 60  1  0  0  0  0
 62 37  1  0  0  0  0
 63 62  1  0  0  0  0
 64 58  2  0  0  0  0
 64 57  1  0  0  0  0
 65 64  1  0  0  0  0
 66 67  1  0  0  0  0
 68 69  1  0  0  0  0
 68 55  1  0  0  0  0
 70 32  1  0  0  0  0
 71 70  1  0  0  0  0
 72 24  1  0  0  0  0
 72 57  1  0  0  0  0
 73 68  2  0  0  0  0
 74 73  1  0  0  0  0
 75 55  2  0  0  0  0
 75 76  1  0  0  0  0
M  END
