2,3
 OpenBabel05122313053D

 55 57  0  0  1  0  0  0  0  0999 V2000
    3.4897    0.6043   -0.5257 N   0  0  0  0  0  0  0  0  0  0  0  0
    0.0464    1.4021   -0.2380 N   0  0  0  0  0  2  0  0  0  0  0  0
   -2.3687    0.7330   -0.0183 N   0  0  0  0  0  2  0  0  0  0  0  0
    2.4363    0.8078    0.1957 C   0  0  0  0  0  0  0  0  0  0  0  0
    1.3892    1.7317   -0.3326 C   0  0  2  0  0  3  0  0  0  0  0  0
    1.8178    2.9922   -0.7373 C   0  0  0  0  0  0  0  0  0  0  0  0
    2.8995    3.1566   -0.8383 H   0  0  0  0  0  0  0  0  0  0  0  0
    0.8839    4.0424   -0.9266 C   0  0  0  0  0  0  0  0  0  0  0  0
    1.2176    5.0450   -1.2297 H   0  0  0  0  0  0  0  0  0  0  0  0
   -0.4481    3.7818   -0.6545 C   0  0  0  0  0  0  0  0  0  0  0  0
   -1.2030    4.5770   -0.7293 H   0  0  0  0  0  0  0  0  0  0  0  0
   -0.8735    2.4707   -0.3132 C   0  0  0  0  0  0  0  0  0  0  0  0
   -2.2180    2.0784   -0.1165 C   0  0  1  0  0  3  0  0  0  0  0  0
    4.6472   -0.0404   -0.0764 C   0  0  0  0  0  0  0  0  0  0  0  0
    5.4789    0.5142    0.9424 C   0  0  0  0  0  0  0  0  0  0  0  0
    6.6705   -0.1564    1.2790 C   0  0  0  0  0  0  0  0  0  0  0  0
    7.3139    0.2760    2.0622 H   0  0  0  0  0  0  0  0  0  0  0  0
    7.0552   -1.3383    0.6356 C   0  0  0  0  0  0  0  0  0  0  0  0
    7.9896   -1.8458    0.9187 H   0  0  0  0  0  0  0  0  0  0  0  0
    6.2564   -1.8488   -0.3976 C   0  0  0  0  0  0  0  0  0  0  0  0
    6.5670   -2.7580   -0.9367 H   0  0  0  0  0  0  0  0  0  0  0  0
    5.0670   -1.2094   -0.7812 C   0  0  0  0  0  0  0  0  0  0  0  0
    5.1447    1.8179    1.6243 C   0  0  0  0  0  0  0  0  0  0  0  0
    6.0692    2.3717    1.8812 H   0  0  0  0  0  0  0  0  0  0  0  0
    4.5907    1.6620    2.5751 H   0  0  0  0  0  0  0  0  0  0  0  0
    4.5177    2.4723    0.9884 H   0  0  0  0  0  0  0  0  0  0  0  0
    4.2412   -1.7313   -1.9273 C   0  0  0  0  0  0  0  0  0  0  0  0
    4.8556   -2.3433   -2.6160 H   0  0  0  0  0  0  0  0  0  0  0  0
    3.7889   -0.8877   -2.4879 H   0  0  0  0  0  0  0  0  0  0  0  0
    3.4021   -2.3725   -1.5828 H   0  0  0  0  0  0  0  0  0  0  0  0
    2.2388    0.3550    1.6255 C   0  0  0  0  0  0  0  0  0  0  0  0
    2.9037   -0.4915    1.8837 H   0  0  0  0  0  0  0  0  0  0  0  0
    1.1794    0.0877    1.8027 H   0  0  0  0  0  0  0  0  0  0  0  0
    2.4813    1.2014    2.3020 H   0  0  0  0  0  0  0  0  0  0  0  0
   -3.3924    3.0101   -0.0555 C   0  0  0  0  0  0  0  0  0  0  0  0
   -4.0559    2.9054   -0.9413 H   0  0  0  0  0  0  0  0  0  0  0  0
   -3.0710    4.0656    0.0038 H   0  0  0  0  0  0  0  0  0  0  0  0
   -4.0245    2.8013    0.8319 H   0  0  0  0  0  0  0  0  0  0  0  0
   -3.6677    0.1951    0.2184 C   0  0  0  0  0  0  0  0  0  0  0  0
   -4.4948   -0.1635   -0.8756 C   0  0  0  0  0  0  0  0  0  0  0  0
   -5.7419   -0.7571   -0.6001 C   0  0  0  0  0  0  0  0  0  0  0  0
   -6.3896   -1.0501   -1.4416 H   0  0  0  0  0  0  0  0  0  0  0  0
   -6.1682   -0.9667    0.7187 C   0  0  0  0  0  0  0  0  0  0  0  0
   -7.1468   -1.4305    0.9144 H   0  0  0  0  0  0  0  0  0  0  0  0
   -5.3464   -0.5825    1.7879 C   0  0  0  0  0  0  0  0  0  0  0  0
   -5.6795   -0.7429    2.8254 H   0  0  0  0  0  0  0  0  0  0  0  0
   -4.0857   -0.0002    1.5601 C   0  0  0  0  0  0  0  0  0  0  0  0
   -4.0543    0.1136   -2.2892 C   0  0  0  0  0  0  0  0  0  0  0  0
   -4.6136   -0.5069   -3.0158 H   0  0  0  0  0  0  0  0  0  0  0  0
   -2.9668   -0.0628   -2.4111 H   0  0  0  0  0  0  0  0  0  0  0  0
   -4.2284    1.1775   -2.5604 H   0  0  0  0  0  0  0  0  0  0  0  0
   -3.1828    0.4014    2.6950 C   0  0  0  0  0  0  0  0  0  0  0  0
   -3.0746    1.5052    2.7592 H   0  0  0  0  0  0  0  0  0  0  0  0
   -2.1572    0.0068    2.5330 H   0  0  0  0  0  0  0  0  0  0  0  0
   -3.5691    0.0390    3.6664 H   0  0  0  0  0  0  0  0  0  0  0  0
  1 14  1  0  0  0  0
  1  4  2  0  0  0  0
  3 39  1  0  0  0  0
  4 31  1  0  0  0  0
  5  2  1  0  0  0  0
  5  4  1  1  0  0  0
  6  5  1  0  0  0  0
  7  6  1  0  0  0  0
  8  6  2  0  0  0  0
  8 10  1  0  0  0  0
  9  8  1  0  0  0  0
 10 12  2  0  0  0  0
 11 10  1  0  0  0  0
 12  2  1  0  0  0  0
 12 13  1  0  0  0  0
 13 35  1  0  0  0  0
 13  3  1  6  0  0  0
 14 15  1  0  0  0  0
 15 16  2  0  0  0  0
 15 23  1  0  0  0  0
 16 17  1  0  0  0  0
 18 19  1  0  0  0  0
 18 16  1  0  0  0  0
 20 18  2  0  0  0  0
 21 20  1  0  0  0  0
 22 20  1  0  0  0  0
 22 14  2  0  0  0  0
 23 24  1  0  0  0  0
 23 25  1  0  0  0  0
 26 23  1  0  0  0  0
 27 30  1  0  0  0  0
 27 22  1  0  0  0  0
 28 27  1  0  0  0  0
 29 27  1  0  0  0  0
 31 33  1  0  0  0  0
 31 32  1  0  0  0  0
 31 34  1  0  0  0  0
 35 37  1  0  0  0  0
 35 38  1  0  0  0  0
 36 35  1  0  0  0  0
 39 47  1  0  0  0  0
 40 41  1  0  0  0  0
 40 39  2  0  0  0  0
 41 43  2  0  0  0  0
 42 41  1  0  0  0  0
 43 44  1  0  0  0  0
 43 45  1  0  0  0  0
 45 46  1  0  0  0  0
 47 45  2  0  0  0  0
 47 52  1  0  0  0  0
 48 40  1  0  0  0  0
 49 48  1  0  0  0  0
 50 48  1  0  0  0  0
 51 48  1  0  0  0  0
 52 53  1  0  0  0  0
 52 55  1  0  0  0  0
 54 52  1  0  0  0  0
M  END
