1,13
 OpenBabel05122313053D

 24 25  0  0  0  0  0  0  0  0999 V2000
    1.8526    0.9683   -0.6012 N   0  0  0  0  0  2  0  0  0  0  0  0
    3.1766    0.8476   -0.8572 C   0  0  0  0  0  3  0  0  0  0  0  0
    3.5640   -0.1778   -0.9286 H   0  0  0  0  0  0  0  0  0  0  0  0
    3.9986    1.9633   -1.0336 C   0  0  0  0  0  0  0  0  0  0  0  0
    5.0694    1.8152   -1.2319 H   0  0  0  0  0  0  0  0  0  0  0  0
    3.4365    3.2499   -0.9629 C   0  0  0  0  0  0  0  0  0  0  0  0
    4.0641    4.1433   -1.0987 H   0  0  0  0  0  0  0  0  0  0  0  0
    2.0622    3.3673   -0.7336 C   0  0  0  0  0  0  0  0  0  0  0  0
    1.5274    4.3270   -0.6843 H   0  0  0  0  0  0  0  0  0  0  0  0
    1.2959    2.2088   -0.5650 C   0  0  0  0  0  0  0  0  0  0  0  0
   -0.1894    2.2717   -0.3661 C   0  0  0  0  0  0  0  0  0  0  0  0
   -0.7959    3.3443   -0.2818 O   0  0  0  0  0  0  0  0  0  0  0  0
   -0.7131    1.0098   -0.3235 N   0  0  0  0  0  2  0  0  0  0  0  0
   -2.1037    0.8556   -0.1483 C   0  0  0  0  0  0  0  0  0  0  0  0
   -2.8991    0.2588   -1.1472 C   0  0  0  0  0  0  0  0  0  0  0  0
   -2.3936   -0.0467   -2.0759 H   0  0  0  0  0  0  0  0  0  0  0  0
   -4.2731    0.0584   -0.9604 C   0  0  0  0  0  0  0  0  0  0  0  0
   -4.9007   -0.4010   -1.7367 H   0  0  0  0  0  0  0  0  0  0  0  0
   -4.8584    0.4717    0.2441 C   0  0  0  0  0  0  0  0  0  0  0  0
   -6.1790    0.2902    0.4356 F   0  0  0  0  0  0  0  0  0  0  0  0
   -4.1053    1.0655    1.2645 C   0  0  0  0  0  0  0  0  0  0  0  0
   -4.5727    1.3771    2.2080 H   0  0  0  0  0  0  0  0  0  0  0  0
   -2.7345    1.2428    1.0525 C   0  0  0  0  0  0  0  0  0  0  0  0
   -1.9859    1.7598    2.0466 F   0  0  0  0  0  0  0  0  0  0  0  0
  1 10  1  0  0  0  0
  2  1  1  0  0  0  0
  3  2  1  0  0  0  0
  4  6  2  0  0  0  0
  4  2  1  0  0  0  0
  5  4  1  0  0  0  0
  6  8  1  0  0  0  0
  7  6  1  0  0  0  0
  8  9  1  0  0  0  0
  8 10  2  0  0  0  0
 10 11  1  0  0  0  0
 11 13  1  0  0  0  0
 11 12  2  0  0  0  0
 13 14  1  0  0  0  0
 14 23  1  0  0  0  0
 15 17  1  0  0  0  0
 15 14  2  0  0  0  0
 16 15  1  0  0  0  0
 17 19  2  0  0  0  0
 18 17  1  0  0  0  0
 19 20  1  0  0  0  0
 19 21  1  0  0  0  0
 21 22  1  0  0  0  0
 23 21  2  0  0  0  0
 23 24  1  0  0  0  0
M  END
