2,5
 OpenBabel05122313053D

 41 44  0  0  1  0  0  0  0  0999 V2000
   -0.0000   -2.6931   -0.0636 O   0  0  0  0  0  0  0  0  0  0  0  0
    2.0942   -0.1459   -0.1488 N   0  0  0  0  0  2  0  0  0  0  0  0
    4.1710   -0.9162    0.0090 N   0  0  0  0  0  0  0  0  0  0  0  0
    4.9422   -1.5840    0.0494 H   0  0  0  0  0  0  0  0  0  0  0  0
   -2.0942   -0.1459   -0.1489 N   0  0  0  0  0  2  0  0  0  0  0  0
   -4.1710   -0.9162    0.0089 N   0  0  0  0  0  0  0  0  0  0  0  0
   -4.9422   -1.5840    0.0493 H   0  0  0  0  0  0  0  0  0  0  0  0
    4.2868    0.4668    0.0627 C   0  0  0  0  0  0  0  0  0  0  0  0
    5.3870    1.3287    0.1871 C   0  0  0  0  0  0  0  0  0  0  0  0
    6.4169    0.9520    0.2620 H   0  0  0  0  0  0  0  0  0  0  0  0
    5.1063    2.6997    0.2109 C   0  0  0  0  0  0  0  0  0  0  0  0
    5.9366    3.4145    0.3059 H   0  0  0  0  0  0  0  0  0  0  0  0
    3.7804    3.1905    0.1151 C   0  0  0  0  0  0  0  0  0  0  0  0
    3.6106    4.2767    0.1373 H   0  0  0  0  0  0  0  0  0  0  0  0
    2.6875    2.3271   -0.0081 C   0  0  0  0  0  0  0  0  0  0  0  0
    1.6565    2.7032   -0.0843 H   0  0  0  0  0  0  0  0  0  0  0  0
    2.9533    0.9472   -0.0341 C   0  0  0  0  0  0  0  0  0  0  0  0
    2.8499   -1.2510   -0.1179 C   0  0  2  0  0  3  0  0  0  0  0  0
    2.4014   -2.6767   -0.2438 C   0  0  0  0  0  0  0  0  0  0  0  0
    3.2553   -3.3291    0.0265 H   0  0  0  0  0  0  0  0  0  0  0  0
    2.1692   -2.8991   -1.3089 H   0  0  0  0  0  0  0  0  0  0  0  0
    1.1916   -3.1057    0.5917 C   0  0  0  0  0  0  0  0  0  0  0  0
    1.1987   -4.2167    0.6875 H   0  0  0  0  0  0  0  0  0  0  0  0
    1.2466   -2.6820    1.6231 H   0  0  0  0  0  0  0  0  0  0  0  0
   -1.1917   -3.1057    0.5916 C   0  0  0  0  0  0  0  0  0  0  0  0
   -1.2467   -2.6821    1.6230 H   0  0  0  0  0  0  0  0  0  0  0  0
   -1.1988   -4.2167    0.6873 H   0  0  0  0  0  0  0  0  0  0  0  0
   -2.4014   -2.6767   -0.2440 C   0  0  0  0  0  0  0  0  0  0  0  0
   -2.1691   -2.8990   -1.3090 H   0  0  0  0  0  0  0  0  0  0  0  0
   -3.2553   -3.3291    0.0262 H   0  0  0  0  0  0  0  0  0  0  0  0
   -2.8499   -1.2509   -0.1181 C   0  0  1  0  0  3  0  0  0  0  0  0
   -4.2868    0.4668    0.0627 C   0  0  0  0  0  0  0  0  0  0  0  0
   -5.3870    1.3287    0.1872 C   0  0  0  0  0  0  0  0  0  0  0  0
   -6.4169    0.9520    0.2621 H   0  0  0  0  0  0  0  0  0  0  0  0
   -5.1063    2.6997    0.2111 C   0  0  0  0  0  0  0  0  0  0  0  0
   -5.9366    3.4145    0.3061 H   0  0  0  0  0  0  0  0  0  0  0  0
   -3.7804    3.1905    0.1153 C   0  0  0  0  0  0  0  0  0  0  0  0
   -3.6106    4.2767    0.1375 H   0  0  0  0  0  0  0  0  0  0  0  0
   -2.6875    2.3271   -0.0080 C   0  0  0  0  0  0  0  0  0  0  0  0
   -1.6565    2.7032   -0.0842 H   0  0  0  0  0  0  0  0  0  0  0  0
   -2.9533    0.9472   -0.0341 C   0  0  0  0  0  0  0  0  0  0  0  0
  1 25  1  0  0  0  0
  1 22  1  0  0  0  0
  2 18  1  0  0  0  0
  2 17  1  0  0  0  0
  3  4  1  0  0  0  0
  3  8  1  0  0  0  0
  5 31  1  0  0  0  0
  5 41  1  0  0  0  0
  6  7  1  0  0  0  0
  6 32  1  0  0  0  0
  8  9  1  0  0  0  0
  9 11  2  0  0  0  0
  9 10  1  0  0  0  0
 11 12  1  0  0  0  0
 13 14  1  0  0  0  0
 13 11  1  0  0  0  0
 15 13  2  0  0  0  0
 16 15  1  0  0  0  0
 17 15  1  0  0  0  0
 17  8  2  0  0  0  0
 18 19  1  6  0  0  0
 18  3  1  0  0  0  0
 19 20  1  0  0  0  0
 19 22  1  0  0  0  0
 21 19  1  0  0  0  0
 22 23  1  0  0  0  0
 22 24  1  0  0  0  0
 25 27  1  0  0  0  0
 25 26  1  0  0  0  0
 28 30  1  0  0  0  0
 28 25  1  0  0  0  0
 29 28  1  0  0  0  0
 31 28  1  6  0  0  0
 31  6  1  0  0  0  0
 32 33  1  0  0  0  0
 33 35  2  0  0  0  0
 33 34  1  0  0  0  0
 35 36  1  0  0  0  0
 37 38  1  0  0  0  0
 37 35  1  0  0  0  0
 39 37  2  0  0  0  0
 40 39  1  0  0  0  0
 41 39  1  0  0  0  0
 41 32  2  0  0  0  0
M  END
