2,3
 OpenBabel05122313053D

 29 31  0  0  1  0  0  0  0  0999 V2000
    0.1935    3.4305   -0.5768 O   0  0  0  0  0  0  0  0  0  0  0  0
    2.2585    0.5444    0.0139 N   0  0  0  0  0  2  0  0  0  0  0  0
   -0.1931    1.2056   -0.5128 N   0  0  0  0  0  2  0  0  0  0  0  0
    3.4927    0.1351    0.3677 C   0  0  0  0  0  3  0  0  0  0  0  0
    3.6287   -0.9436    0.5066 H   0  0  0  0  0  0  0  0  0  0  0  0
    4.5521    1.0299    0.5628 C   0  0  0  0  0  0  0  0  0  0  0  0
    5.5404    0.6362    0.8384 H   0  0  0  0  0  0  0  0  0  0  0  0
    4.3325    2.4082    0.4148 C   0  0  0  0  0  0  0  0  0  0  0  0
    5.1488    3.1283    0.5692 H   0  0  0  0  0  0  0  0  0  0  0  0
    3.0457    2.8483    0.0865 C   0  0  0  0  0  0  0  0  0  0  0  0
    2.7964    3.9136   -0.0144 H   0  0  0  0  0  0  0  0  0  0  0  0
    2.0396    1.8911   -0.1003 C   0  0  0  0  0  0  0  0  0  0  0  0
    0.6538    2.1942   -0.3975 C   0  0  1  0  0  3  0  0  0  0  0  0
   -1.2641    3.2894   -0.6308 C   0  0  0  0  0  0  0  0  0  0  0  0
   -1.6480    3.9704   -1.4104 H   0  0  0  0  0  0  0  0  0  0  0  0
   -1.6659    3.5807    0.3614 H   0  0  0  0  0  0  0  0  0  0  0  0
   -1.4991    1.7857   -0.9287 C   0  0  2  0  0  0  0  0  0  0  0  0
   -1.5867    1.6240   -2.0254 H   0  0  0  0  0  0  0  0  0  0  0  0
   -2.7141    1.1948   -0.2559 C   0  0  0  0  0  0  0  0  0  0  0  0
   -3.8473    0.8692   -1.0268 C   0  0  0  0  0  0  0  0  0  0  0  0
   -3.8387    1.0434   -2.1151 H   0  0  0  0  0  0  0  0  0  0  0  0
   -4.9909    0.3299   -0.4172 C   0  0  0  0  0  0  0  0  0  0  0  0
   -5.8720    0.0814   -1.0271 H   0  0  0  0  0  0  0  0  0  0  0  0
   -5.0073    0.1129    0.9698 C   0  0  0  0  0  0  0  0  0  0  0  0
   -5.9024   -0.3099    1.4501 H   0  0  0  0  0  0  0  0  0  0  0  0
   -3.8808    0.4419    1.7427 C   0  0  0  0  0  0  0  0  0  0  0  0
   -3.8888    0.2721    2.8299 H   0  0  0  0  0  0  0  0  0  0  0  0
   -2.7380    0.9842    1.1371 C   0  0  0  0  0  0  0  0  0  0  0  0
   -1.8448    1.1983    1.7447 H   0  0  0  0  0  0  0  0  0  0  0  0
  1 13  1  0  0  0  0
  2  4  1  0  0  0  0
  3 13  1  0  0  0  0
  4  5  1  0  0  0  0
  4  6  1  0  0  0  0
  6  7  1  0  0  0  0
  8  6  2  0  0  0  0
  8  9  1  0  0  0  0
 10  8  1  0  0  0  0
 11 10  1  0  0  0  0
 12  2  1  0  0  0  0
 12 10  2  0  0  0  0
 13 12  1  6  0  0  0
 14  1  1  0  0  0  0
 14 16  1  0  0  0  0
 15 14  1  0  0  0  0
 17 18  1  6  0  0  0
 17 14  1  0  0  0  0
 17  3  1  0  0  0  0
 17 19  1  0  0  0  0
 19 28  1  0  0  0  0
 20 22  1  0  0  0  0
 20 19  2  0  0  0  0
 21 20  1  0  0  0  0
 22 24  2  0  0  0  0
 23 22  1  0  0  0  0
 24 25  1  0  0  0  0
 24 26  1  0  0  0  0
 26 27  1  0  0  0  0
 28 26  2  0  0  0  0
 28 29  1  0  0  0  0
M  END
