1,2
 OpenBabel05122313053D

 33 36  0  0  0  0  0  0  0  0999 V2000
    0.0743    2.1735   -0.0761 N   0  0  0  0  0  2  0  0  0  0  0  0
   -2.0062    0.4476   -0.0463 N   0  0  0  0  0  2  0  0  0  0  0  0
   -3.1820   -0.2025   -0.0266 N   0  0  0  0  0  0  0  0  0  0  0  0
   -3.5934    2.0384   -0.0478 N   0  0  0  0  0  2  0  0  0  0  0  0
   -9.7422   -0.2432    0.0242 N   0  0  0  0  0  0  0  0  0  0  0  0
  -11.7052   -1.2340   -0.4297 N   0  0  0  0  0  0  0  0  0  0  0  0
    1.1692    2.9545   -0.0680 C   0  0  0  0  0  0  0  0  0  0  0  0
    2.1355    2.4164   -0.0649 H   0  0  0  0  0  0  0  0  0  0  0  0
    1.0782    4.3533   -0.0592 C   0  0  0  0  0  0  0  0  0  0  0  0
    1.9919    4.9641   -0.0520 H   0  0  0  0  0  0  0  0  0  0  0  0
   -0.1982    4.9445   -0.0566 C   0  0  0  0  0  0  0  0  0  0  0  0
   -0.3022    6.0403   -0.0493 H   0  0  0  0  0  0  0  0  0  0  0  0
   -1.3371    4.1325   -0.0592 C   0  0  0  0  0  0  0  0  0  0  0  0
   -2.3575    4.5399   -0.0514 H   0  0  0  0  0  0  0  0  0  0  0  0
   -1.1660    2.7342   -0.0655 C   0  0  0  0  0  0  0  0  0  0  0  0
   -2.2752    1.7845   -0.0566 C   0  0  0  0  0  0  0  0  0  0  0  0
   -4.1218    0.7825   -0.0280 C   0  0  0  0  0  0  0  0  0  0  0  0
   -5.5632    0.5098   -0.0126 C   0  0  0  0  0  0  0  0  0  0  0  0
   -6.4870    1.5775   -0.0182 C   0  0  0  0  0  0  0  0  0  0  0  0
   -6.0968    2.6050   -0.0412 H   0  0  0  0  0  0  0  0  0  0  0  0
   -7.8630    1.3344   -0.0118 C   0  0  0  0  0  0  0  0  0  0  0  0
   -8.5738    2.1724   -0.0502 H   0  0  0  0  0  0  0  0  0  0  0  0
   -8.3465    0.0111    0.0171 C   0  0  0  0  0  0  0  0  0  0  0  0
   -7.4328   -1.0621    0.0337 C   0  0  0  0  0  0  0  0  0  0  0  0
   -7.8070   -2.0944    0.0899 H   0  0  0  0  0  0  0  0  0  0  0  0
   -6.0580   -0.8125    0.0095 C   0  0  0  0  0  0  0  0  0  0  0  0
   -5.3422   -1.6464    0.0243 H   0  0  0  0  0  0  0  0  0  0  0  0
  -10.7274    0.5145    0.6457 C   0  0  0  0  0  0  0  0  0  0  0  0
  -10.4800    1.3885    1.2558 H   0  0  0  0  0  0  0  0  0  0  0  0
  -11.9222   -0.1225    0.3563 C   0  0  0  0  0  0  0  0  0  0  0  0
  -12.9295    0.1654    0.6836 H   0  0  0  0  0  0  0  0  0  0  0  0
  -10.3986   -1.2848   -0.6099 C   0  0  0  0  0  0  0  0  0  0  0  0
   -9.8537   -2.0182   -1.2180 H   0  0  0  0  0  0  0  0  0  0  0  0
  1  7  1  0  0  0  0
  1 15  1  0  0  0  0
  2  3  1  0  0  0  0
  4 17  1  0  0  0  0
  5 28  1  0  0  0  0
  6 30  1  0  0  0  0
  7  8  1  0  0  0  0
  7  9  2  0  0  0  0
  9 11  1  0  0  0  0
  9 10  1  0  0  0  0
 11 12  1  0  0  0  0
 13 11  2  0  0  0  0
 13 14  1  0  0  0  0
 15 13  1  0  0  0  0
 15 16  2  0  0  0  0
 16  4  1  0  0  0  0
 16  2  1  0  0  0  0
 17  3  2  0  0  0  0
 17 18  1  0  0  0  0
 18 26  1  0  0  0  0
 19 18  2  0  0  0  0
 19 21  1  0  0  0  0
 20 19  1  0  0  0  0
 21 23  2  0  0  0  0
 22 21  1  0  0  0  0
 23  5  1  0  0  0  0
 23 24  1  0  0  0  0
 24 25  1  0  0  0  0
 26 27  1  0  0  0  0
 26 24  2  0  0  0  0
 28 29  1  0  0  0  0
 30 28  2  0  0  0  0
 30 31  1  0  0  0  0
 32  6  2  0  0  0  0
 32  5  1  0  0  0  0
 33 32  1  0  0  0  0
M  END
