1,37
 OpenBabel05122313053D

 70 73  0  0  0  0  0  0  0  0999 V2000
   -1.2771   -0.7017   -0.2101 N   0  0  0  0  0  2  0  0  0  0  0  0
   -1.4230    1.6666   -0.4015 N   0  0  0  0  0  0  0  0  0  0  0  0
   -2.6889   -0.8338   -0.5362 C   0  0  0  0  0  0  0  0  0  0  0  0
   -3.5546   -0.9578    0.7374 C   0  0  0  0  0  0  0  0  0  0  0  0
   -0.7196    0.4961   -0.1681 C   0  0  0  0  0  0  0  0  0  0  0  0
   -5.9539   -0.2072    0.3594 C   0  0  0  0  0  0  0  0  0  0  0  0
   -7.2854   -0.4709    0.0027 C   0  0  0  0  0  0  0  0  0  0  0  0
   -7.6796   -1.7790   -0.3181 C   0  0  0  0  0  0  0  0  0  0  0  0
   -6.7361   -2.8186   -0.2782 C   0  0  0  0  0  0  0  0  0  0  0  0
   -5.4064   -2.5535    0.0800 C   0  0  0  0  0  0  0  0  0  0  0  0
   -4.9994   -1.2422    0.4055 C   0  0  0  0  0  0  0  0  0  0  0  0
   -1.5409    4.0604   -0.8072 C   0  0  0  0  0  0  0  0  0  0  0  0
   -1.1012    5.2029   -1.4801 C   0  0  0  0  0  0  0  0  0  0  0  0
   -0.0799    5.1383   -2.4518 C   0  0  0  0  0  0  0  0  0  0  0  0
    0.4569    3.8695   -2.7489 C   0  0  0  0  0  0  0  0  0  0  0  0
    0.0090    2.7103   -2.1024 C   0  0  0  0  0  0  0  0  0  0  0  0
   -0.9801    2.8009   -1.1031 C   0  0  0  0  0  0  0  0  0  0  0  0
    0.4161    6.3861   -3.1374 C   0  0  0  0  0  0  0  0  0  0  0  0
   -2.3860    1.6949   -0.0641 H   0  0  0  0  0  0  0  0  0  0  0  0
   -2.8108   -1.7570   -1.1348 H   0  0  0  0  0  0  0  0  0  0  0  0
   -3.0471    0.0150   -1.1611 H   0  0  0  0  0  0  0  0  0  0  0  0
   -3.4723   -0.0258    1.3380 H   0  0  0  0  0  0  0  0  0  0  0  0
   -3.1256   -1.7739    1.3544 H   0  0  0  0  0  0  0  0  0  0  0  0
   -5.6503    0.8212    0.6161 H   0  0  0  0  0  0  0  0  0  0  0  0
   -8.0193    0.3492   -0.0217 H   0  0  0  0  0  0  0  0  0  0  0  0
   -8.7235   -1.9892   -0.5963 H   0  0  0  0  0  0  0  0  0  0  0  0
   -7.0388   -3.8478   -0.5244 H   0  0  0  0  0  0  0  0  0  0  0  0
   -4.6701   -3.3728    0.1118 H   0  0  0  0  0  0  0  0  0  0  0  0
   -2.3054    4.1410   -0.0193 H   0  0  0  0  0  0  0  0  0  0  0  0
   -1.5491    6.1773   -1.2289 H   0  0  0  0  0  0  0  0  0  0  0  0
    1.2335    3.7820   -3.5252 H   0  0  0  0  0  0  0  0  0  0  0  0
    0.4168    1.7266   -2.3791 H   0  0  0  0  0  0  0  0  0  0  0  0
    1.1009    6.1481   -3.9741 H   0  0  0  0  0  0  0  0  0  0  0  0
    0.9680    7.0416   -2.4299 H   0  0  0  0  0  0  0  0  0  0  0  0
   -0.4217    6.9891   -3.5439 H   0  0  0  0  0  0  0  0  0  0  0  0
    0.7196    0.4960    0.1681 C   0  0  0  0  0  0  0  0  0  0  0  0
    1.2770   -0.7019    0.2101 N   0  0  0  0  0  2  0  0  0  0  0  0
    2.6887   -0.8343    0.5363 C   0  0  0  0  0  0  0  0  0  0  0  0
    3.5545   -0.9583   -0.7374 C   0  0  0  0  0  0  0  0  0  0  0  0
    4.9993   -1.2428   -0.4054 C   0  0  0  0  0  0  0  0  0  0  0  0
    5.9539   -0.2080   -0.3593 C   0  0  0  0  0  0  0  0  0  0  0  0
    7.2853   -0.4717   -0.0026 C   0  0  0  0  0  0  0  0  0  0  0  0
    7.6794   -1.7798    0.3182 C   0  0  0  0  0  0  0  0  0  0  0  0
    6.7358   -2.8194    0.2782 C   0  0  0  0  0  0  0  0  0  0  0  0
    5.4061   -2.5542   -0.0799 C   0  0  0  0  0  0  0  0  0  0  0  0
    4.6697   -3.3734   -0.1118 H   0  0  0  0  0  0  0  0  0  0  0  0
    7.0384   -3.8487    0.5245 H   0  0  0  0  0  0  0  0  0  0  0  0
    8.7233   -1.9902    0.5964 H   0  0  0  0  0  0  0  0  0  0  0  0
    8.0193    0.3483    0.0218 H   0  0  0  0  0  0  0  0  0  0  0  0
    5.6503    0.8205   -0.6160 H   0  0  0  0  0  0  0  0  0  0  0  0
    3.4723   -0.0263   -1.3380 H   0  0  0  0  0  0  0  0  0  0  0  0
    3.1254   -1.7744   -1.3544 H   0  0  0  0  0  0  0  0  0  0  0  0
    2.8106   -1.7574    1.1348 H   0  0  0  0  0  0  0  0  0  0  0  0
    3.0470    0.0145    1.1612 H   0  0  0  0  0  0  0  0  0  0  0  0
    1.4233    1.6664    0.4015 N   0  0  0  0  0  0  0  0  0  0  0  0
    0.9805    2.8008    1.1031 C   0  0  0  0  0  0  0  0  0  0  0  0
    1.5416    4.0602    0.8072 C   0  0  0  0  0  0  0  0  0  0  0  0
    1.1020    5.2027    1.4801 C   0  0  0  0  0  0  0  0  0  0  0  0
    0.0807    5.1383    2.4518 C   0  0  0  0  0  0  0  0  0  0  0  0
   -0.4564    3.8696    2.7488 C   0  0  0  0  0  0  0  0  0  0  0  0
   -0.0087    2.7103    2.1024 C   0  0  0  0  0  0  0  0  0  0  0  0
   -0.4166    1.7267    2.3791 H   0  0  0  0  0  0  0  0  0  0  0  0
   -1.2330    3.7822    3.5251 H   0  0  0  0  0  0  0  0  0  0  0  0
   -0.4152    6.3862    3.1373 C   0  0  0  0  0  0  0  0  0  0  0  0
   -1.1000    6.1483    3.9741 H   0  0  0  0  0  0  0  0  0  0  0  0
   -0.9671    7.0417    2.4299 H   0  0  0  0  0  0  0  0  0  0  0  0
    0.4227    6.9891    3.5437 H   0  0  0  0  0  0  0  0  0  0  0  0
    1.5501    6.1771    1.2289 H   0  0  0  0  0  0  0  0  0  0  0  0
    2.3061    4.1407    0.0194 H   0  0  0  0  0  0  0  0  0  0  0  0
    2.3863    1.6945    0.0641 H   0  0  0  0  0  0  0  0  0  0  0  0
  1  5  1  0  0  0  0
  2  5  1  0  0  0  0
  2 19  1  0  0  0  0
  3  1  1  0  0  0  0
  3  4  1  0  0  0  0
  4 22  1  0  0  0  0
  4 23  1  0  0  0  0
  5 36  2  0  0  0  0
  6 11  1  0  0  0  0
  6 24  1  0  0  0  0
  7  6  2  0  0  0  0
  8  9  2  0  0  0  0
  8  7  1  0  0  0  0
  9 10  1  0  0  0  0
 10 28  1  0  0  0  0
 10 11  2  0  0  0  0
 11  4  1  0  0  0  0
 12 29  1  0  0  0  0
 13 30  1  0  0  0  0
 13 12  2  0  0  0  0
 14 13  1  0  0  0  0
 15 14  2  0  0  0  0
 15 16  1  0  0  0  0
 16 17  2  0  0  0  0
 17 12  1  0  0  0  0
 17  2  1  0  0  0  0
 18 14  1  0  0  0  0
 18 34  1  0  0  0  0
 20  3  1  0  0  0  0
 21  3  1  0  0  0  0
 25  7  1  0  0  0  0
 26  8  1  0  0  0  0
 27  9  1  0  0  0  0
 31 15  1  0  0  0  0
 32 16  1  0  0  0  0
 33 18  1  0  0  0  0
 35 18  1  0  0  0  0
 36 37  1  0  0  0  0
 36 55  1  0  0  0  0
 37 38  1  0  0  0  0
 38 53  1  0  0  0  0
 38 54  1  0  0  0  0
 39 40  1  0  0  0  0
 39 38  1  0  0  0  0
 40 41  2  0  0  0  0
 40 45  1  0  0  0  0
 41 42  1  0  0  0  0
 42 49  1  0  0  0  0
 42 43  2  0  0  0  0
 43 48  1  0  0  0  0
 44 43  1  0  0  0  0
 44 47  1  0  0  0  0
 45 44  2  0  0  0  0
 46 45  1  0  0  0  0
 50 41  1  0  0  0  0
 51 39  1  0  0  0  0
 52 39  1  0  0  0  0
 55 56  1  0  0  0  0
 56 61  1  0  0  0  0
 57 56  2  0  0  0  0
 57 58  1  0  0  0  0
 58 59  2  0  0  0  0
 59 60  1  0  0  0  0
 59 64  1  0  0  0  0
 60 63  1  0  0  0  0
 61 62  1  0  0  0  0
 61 60  2  0  0  0  0
 64 67  1  0  0  0  0
 64 65  1  0  0  0  0
 66 64  1  0  0  0  0
 68 58  1  0  0  0  0
 69 57  1  0  0  0  0
 70 55  1  0  0  0  0
M  END
