1,3
 OpenBabel05122313053D

 24 25  0  0  1  0  0  0  0  0999 V2000
   -1.4289    2.0993   -1.4712 N   0  0  0  0  0  2  0  0  0  0  0  0
    0.7049    2.7384   -0.5160 N   0  0  0  0  0  2  0  0  0  0  0  0
    1.1238    1.6244   -1.0442 N   0  0  0  0  0  2  0  0  0  0  0  0
   -0.6139    2.9353   -0.7911 C   0  0  2  0  0  3  0  0  0  0  0  0
    2.4231    1.2180   -0.7019 C   0  0  0  0  0  0  0  0  0  0  0  0
    2.8918    0.0324   -1.3144 C   0  0  0  0  0  0  0  0  0  0  0  0
    2.2401   -0.4689   -2.0502 H   0  0  0  0  0  0  0  0  0  0  0  0
    3.2406    1.8943    0.2324 C   0  0  0  0  0  0  0  0  0  0  0  0
    2.8619    2.8177    0.6920 H   0  0  0  0  0  0  0  0  0  0  0  0
    4.1450   -0.4771   -0.9734 C   0  0  0  0  0  0  0  0  0  0  0  0
    4.4946   -1.4083   -1.4463 H   0  0  0  0  0  0  0  0  0  0  0  0
   -1.3245    4.0086   -0.3150 N   0  0  0  0  0  0  0  0  0  0  0  0
   -0.9337    4.7366    0.2836 H   0  0  0  0  0  0  0  0  0  0  0  0
   -2.6799    2.6520   -1.4091 C   0  0  0  0  0  0  0  0  0  0  0  0
   -3.5462    2.1746   -1.8816 H   0  0  0  0  0  0  0  0  0  0  0  0
    4.9673    0.1721   -0.0256 C   0  0  0  0  0  0  0  0  0  0  0  0
   -2.6384    3.8429   -0.6892 C   0  0  0  0  0  0  0  0  0  0  0  0
   -3.4178    4.5650   -0.4269 H   0  0  0  0  0  0  0  0  0  0  0  0
    4.4935    1.3693    0.5585 C   0  0  0  0  0  0  0  0  0  0  0  0
    5.1265    1.8927    1.2932 H   0  0  0  0  0  0  0  0  0  0  0  0
    6.2983   -0.4149    0.3638 C   0  0  0  0  0  0  0  0  0  0  0  0
    6.9009    0.2921    0.9661 H   0  0  0  0  0  0  0  0  0  0  0  0
    6.8915   -0.7031   -0.5282 H   0  0  0  0  0  0  0  0  0  0  0  0
    6.1608   -1.3382    0.9669 H   0  0  0  0  0  0  0  0  0  0  0  0
  1 14  1  0  0  0  0
  1  4  1  0  0  0  0
  3  5  1  0  0  0  0
  3  2  1  0  0  0  0
  4  2  1  1  0  0  0
  4 12  1  0  0  0  0
  5  8  1  0  0  0  0
  6 10  1  0  0  0  0
  6  5  2  0  0  0  0
  7  6  1  0  0  0  0
  8 19  2  0  0  0  0
  8  9  1  0  0  0  0
 10 16  2  0  0  0  0
 11 10  1  0  0  0  0
 12 13  1  0  0  0  0
 14 17  2  0  0  0  0
 15 14  1  0  0  0  0
 16 21  1  0  0  0  0
 16 19  1  0  0  0  0
 17 18  1  0  0  0  0
 17 12  1  0  0  0  0
 19 20  1  0  0  0  0
 21 22  1  0  0  0  0
 21 24  1  0  0  0  0
 23 21  1  0  0  0  0
M  END
