1,9
 OpenBabel05122313053D

 24 24  0  0  1  0  0  0  0  0999 V2000
    2.3880    0.6232   -0.7315 N   0  0  0  0  0  2  0  0  0  0  0  0
    3.1123    1.3325   -0.8817 H   0  0  0  0  0  0  0  0  0  0  0  0
    1.8450   -1.6373   -0.6285 N   0  0  0  0  0  0  0  0  0  0  0  0
    2.0792   -2.3883    0.0384 H   0  0  0  0  0  0  0  0  0  0  0  0
    0.5761   -1.2110   -0.6996 N   0  0  0  0  0  0  0  0  0  0  0  0
    4.0899   -1.0656   -0.7010 N   0  0  0  0  0  0  0  0  0  0  0  0
    4.2810   -1.9791   -1.1146 H   0  0  0  0  0  0  0  0  0  0  0  0
    4.8466   -0.3855   -0.7472 H   0  0  0  0  0  0  0  0  0  0  0  0
   -1.5346    0.2240   -0.2516 N   0  0  0  0  0  2  0  0  0  0  0  0
    2.8010   -0.6012   -0.7066 C   0  0  2  0  0  3  0  0  0  0  0  0
   -0.4323   -1.9039   -0.2732 C   0  0  0  0  0  0  0  0  0  0  0  0
   -1.6950   -1.1225   -0.2760 C   0  0  1  0  0  3  0  0  0  0  0  0
   -2.9794   -1.6963   -0.2902 C   0  0  0  0  0  0  0  0  0  0  0  0
   -3.1026   -2.7885   -0.3127 H   0  0  0  0  0  0  0  0  0  0  0  0
   -4.0991   -0.8518   -0.3026 C   0  0  0  0  0  0  0  0  0  0  0  0
   -5.1127   -1.2803   -0.3196 H   0  0  0  0  0  0  0  0  0  0  0  0
   -3.9119    0.5374   -0.2994 C   0  0  0  0  0  0  0  0  0  0  0  0
   -4.7652    1.2306   -0.3059 H   0  0  0  0  0  0  0  0  0  0  0  0
   -2.5992    1.0352   -0.2730 C   0  0  0  0  0  0  0  0  0  0  0  0
   -2.3516    2.1131   -0.2539 H   0  0  0  0  0  0  0  0  0  0  0  0
   -0.3161   -3.2574    0.3601 C   0  0  0  0  0  0  0  0  0  0  0  0
    0.3367   -3.9363   -0.2266 H   0  0  0  0  0  0  0  0  0  0  0  0
   -1.2937   -3.7512    0.5012 H   0  0  0  0  0  0  0  0  0  0  0  0
    0.1348   -3.1103    1.3684 H   0  0  0  0  0  0  0  0  0  0  0  0
  2  1  1  0  0  0  0
  3  4  1  0  0  0  0
  5  3  1  0  0  0  0
  5 11  2  0  0  0  0
  7  6  1  0  0  0  0
  8  6  1  0  0  0  0
 10  1  1  1  0  0  0
 10  6  1  0  0  0  0
 10  3  1  0  0  0  0
 11 21  1  0  0  0  0
 12 11  1  1  0  0  0
 12  9  1  0  0  0  0
 13 12  1  0  0  0  0
 14 13  1  0  0  0  0
 15 17  1  0  0  0  0
 15 13  2  0  0  0  0
 16 15  1  0  0  0  0
 17 19  2  0  0  0  0
 18 17  1  0  0  0  0
 19 20  1  0  0  0  0
 19  9  1  0  0  0  0
 21 23  1  0  0  0  0
 21 24  1  0  0  0  0
 22 21  1  0  0  0  0
M  END
