6,7
 OpenBabel05122313053D

 28 29  0  0  0  0  0  0  0  0999 V2000
    4.2322    2.5013   -0.1404 F   0  0  0  0  0  0  0  0  0  0  0  0
    4.4395    0.5144    0.7507 F   0  0  0  0  0  0  0  0  0  0  0  0
    4.3032    0.7247   -1.4135 F   0  0  0  0  0  0  0  0  0  0  0  0
    3.0905   -3.2024    1.0841 O   0  0  0  0  0  0  0  0  0  0  0  0
    4.0221   -2.9837    0.8970 H   0  0  0  0  0  0  0  0  0  0  0  0
   -2.1568    1.0798    0.0892 N   0  0  0  0  0  2  0  0  0  0  0  0
    0.3210    0.2015   -0.1063 N   0  0  0  0  0  2  0  0  0  0  0  0
    1.6394   -0.0401   -0.2191 N   0  0  0  0  0  0  0  0  0  0  0  0
   -3.4563    1.4275    0.1895 C   0  0  0  0  0  0  0  0  0  0  0  0
   -4.1600    0.5780    0.1454 H   0  0  0  0  0  0  0  0  0  0  0  0
   -3.8534    2.7609    0.3356 C   0  0  0  0  0  0  0  0  0  0  0  0
   -4.9238    2.9974    0.4134 H   0  0  0  0  0  0  0  0  0  0  0  0
   -2.8762    3.7676    0.3795 C   0  0  0  0  0  0  0  0  0  0  0  0
   -3.1605    4.8239    0.4940 H   0  0  0  0  0  0  0  0  0  0  0  0
   -1.5287    3.4065    0.2755 C   0  0  0  0  0  0  0  0  0  0  0  0
   -0.7319    4.1626    0.3057 H   0  0  0  0  0  0  0  0  0  0  0  0
   -1.1934    2.0497    0.1305 C   0  0  0  0  0  0  0  0  0  0  0  0
    0.1668    1.5499    0.0136 C   0  0  0  0  0  0  0  0  0  0  0  0
    1.4282    2.1825   -0.0129 C   0  0  0  0  0  0  0  0  0  0  0  0
    1.6626    3.2481    0.0539 H   0  0  0  0  0  0  0  0  0  0  0  0
    2.3393    1.1399   -0.1550 C   0  0  0  0  0  0  0  0  0  0  0  0
    3.8354    1.2194   -0.2411 C   0  0  0  0  0  0  0  0  0  0  0  0
    2.1948   -1.3885   -0.2570 C   0  0  0  0  0  0  0  0  0  0  0  0
    3.1684   -1.3212   -0.7782 H   0  0  0  0  0  0  0  0  0  0  0  0
    1.4980   -2.0283   -0.8359 H   0  0  0  0  0  0  0  0  0  0  0  0
    2.3719   -1.9956    1.1524 C   0  0  0  0  0  0  0  0  0  0  0  0
    2.8470   -1.2403    1.8232 H   0  0  0  0  0  0  0  0  0  0  0  0
    1.3644   -2.2384    1.5470 H   0  0  0  0  0  0  0  0  0  0  0  0
  3 22  1  0  0  0  0
  4 26  1  0  0  0  0
  5  4  1  0  0  0  0
  6 17  1  0  0  0  0
  6  9  1  0  0  0  0
  7 18  1  0  0  0  0
  8 21  1  0  0  0  0
  8  7  1  0  0  0  0
  9 11  2  0  0  0  0
 10  9  1  0  0  0  0
 11 13  1  0  0  0  0
 11 12  1  0  0  0  0
 13 14  1  0  0  0  0
 15 16  1  0  0  0  0
 15 13  2  0  0  0  0
 17 15  1  0  0  0  0
 18 17  2  0  0  0  0
 19 18  1  0  0  0  0
 19 20  1  0  0  0  0
 21 19  2  0  0  0  0
 22 21  1  0  0  0  0
 22  1  1  0  0  0  0
 22  2  1  0  0  0  0
 23  8  1  0  0  0  0
 23 26  1  0  0  0  0
 24 23  1  0  0  0  0
 25 23  1  0  0  0  0
 26 28  1  0  0  0  0
 26 27  1  0  0  0  0
M  END
