2,3
 OpenBabel05122313053D

 49 51  0  0  1  0  0  0  0  0999 V2000
    0.1978    4.0986   -0.2265 O   0  0  0  0  0  0  0  0  0  0  0  0
   -1.8806    0.2846   -0.1577 N   0  0  0  0  0  2  0  0  0  0  0  0
    0.5436    1.8809   -0.2362 N   0  0  0  0  0  2  0  0  0  0  0  0
   -2.4878    1.4873   -0.3799 C   0  0  0  0  0  0  0  0  0  0  0  0
   -1.7687    2.7450   -0.4861 C   0  0  0  0  0  0  0  0  0  0  0  0
   -2.4863    3.9542   -0.7133 C   0  0  0  0  0  3  0  0  0  0  0  0
   -1.9071    4.8853   -0.7804 H   0  0  0  0  0  0  0  0  0  0  0  0
   -3.8668    3.9782   -0.8499 C   0  0  0  0  0  0  0  0  0  0  0  0
   -4.3949    4.9246   -1.0329 H   0  0  0  0  0  0  0  0  0  0  0  0
   -4.5766    2.7584   -0.7517 C   0  0  0  0  0  0  0  0  0  0  0  0
   -5.6721    2.7497   -0.8666 H   0  0  0  0  0  0  0  0  0  0  0  0
   -3.9134    1.5617   -0.5214 C   0  0  0  0  0  0  0  0  0  0  0  0
   -4.4795    0.6216   -0.4584 H   0  0  0  0  0  0  0  0  0  0  0  0
   -0.3379    2.8544   -0.3170 C   0  0  0  0  0  0  0  0  0  0  0  0
    1.5943    3.9517    0.1177 C   0  0  0  0  0  0  0  0  0  0  0  0
    1.7241    4.2840    1.1708 H   0  0  0  0  0  0  0  0  0  0  0  0
    2.1882    4.6124   -0.5423 H   0  0  0  0  0  0  0  0  0  0  0  0
    1.8900    2.4437   -0.0599 C   0  0  1  0  0  0  0  0  0  0  0  0
    2.4667    2.2627   -0.9952 H   0  0  0  0  0  0  0  0  0  0  0  0
    2.6133    1.7739    1.1127 C   0  0  0  0  0  0  0  0  0  0  0  0
    2.6864    0.6877    0.8811 H   0  0  0  0  0  0  0  0  0  0  0  0
    1.9537    1.8574    2.0049 H   0  0  0  0  0  0  0  0  0  0  0  0
    4.0053    2.3300    1.4606 C   0  0  0  0  0  0  0  0  0  0  0  0
    3.8838    3.3987    1.7564 H   0  0  0  0  0  0  0  0  0  0  0  0
    4.5686    1.5765    2.6724 C   0  0  0  0  0  0  0  0  0  0  0  0
    4.7042    0.5002    2.4330 H   0  0  0  0  0  0  0  0  0  0  0  0
    3.8869    1.6401    3.5449 H   0  0  0  0  0  0  0  0  0  0  0  0
    5.5545    1.9804    2.9792 H   0  0  0  0  0  0  0  0  0  0  0  0
    4.9860    2.2793    0.2819 C   0  0  0  0  0  0  0  0  0  0  0  0
    5.9760    2.6835    0.5749 H   0  0  0  0  0  0  0  0  0  0  0  0
    4.6361    2.8688   -0.5901 H   0  0  0  0  0  0  0  0  0  0  0  0
    5.1405    1.2346   -0.0601 H   0  0  0  0  0  0  0  0  0  0  0  0
   -2.6551   -0.8385    0.2465 C   0  0  0  0  0  0  0  0  0  0  0  0
   -2.7849   -1.9525   -0.6252 C   0  0  0  0  0  0  0  0  0  0  0  0
   -3.4842   -3.0878   -0.1745 C   0  0  0  0  0  0  0  0  0  0  0  0
   -3.5891   -3.9508   -0.8508 H   0  0  0  0  0  0  0  0  0  0  0  0
   -4.0406   -3.1324    1.1108 C   0  0  0  0  0  0  0  0  0  0  0  0
   -4.5809   -4.0296    1.4485 H   0  0  0  0  0  0  0  0  0  0  0  0
   -3.8968   -2.0329    1.9676 C   0  0  0  0  0  0  0  0  0  0  0  0
   -4.3174   -2.0686    2.9851 H   0  0  0  0  0  0  0  0  0  0  0  0
   -3.2081   -0.8762    1.5581 C   0  0  0  0  0  0  0  0  0  0  0  0
   -3.0366    0.2934    2.4915 C   0  0  0  0  0  0  0  0  0  0  0  0
   -3.2823    0.0132    3.5335 H   0  0  0  0  0  0  0  0  0  0  0  0
   -3.6867    1.1465    2.2024 H   0  0  0  0  0  0  0  0  0  0  0  0
   -1.9962    0.6776    2.4606 H   0  0  0  0  0  0  0  0  0  0  0  0
   -2.1485   -1.9248   -1.9892 C   0  0  0  0  0  0  0  0  0  0  0  0
   -2.3605   -0.9767   -2.5233 H   0  0  0  0  0  0  0  0  0  0  0  0
   -2.4957   -2.7706   -2.6127 H   0  0  0  0  0  0  0  0  0  0  0  0
   -1.0425   -2.0063   -1.8971 H   0  0  0  0  0  0  0  0  0  0  0  0
  1 15  1  0  0  0  0
  2 33  1  0  0  0  0
  3 18  1  0  0  0  0
  4  2  1  0  0  0  0
  5  4  1  0  0  0  0
  5 14  2  0  0  0  0
  6  5  1  0  0  0  0
  7  6  1  0  0  0  0
  8 10  2  0  0  0  0
  8  6  1  0  0  0  0
  9  8  1  0  0  0  0
 10 12  1  0  0  0  0
 11 10  1  0  0  0  0
 12 13  1  0  0  0  0
 12  4  2  0  0  0  0
 14  3  1  0  0  0  0
 14  1  1  0  0  0  0
 15 16  1  0  0  0  0
 17 15  1  0  0  0  0
 18 19  1  6  0  0  0
 18 15  1  0  0  0  0
 18 20  1  0  0  0  0
 20 23  1  0  0  0  0
 20 22  1  0  0  0  0
 21 20  1  0  0  0  0
 23 24  1  0  0  0  0
 23 25  1  0  0  0  0
 25 28  1  0  0  0  0
 25 27  1  0  0  0  0
 26 25  1  0  0  0  0
 29 30  1  0  0  0  0
 29 23  1  0  0  0  0
 31 29  1  0  0  0  0
 32 29  1  0  0  0  0
 33 41  1  0  0  0  0
 34 35  1  0  0  0  0
 34 33  2  0  0  0  0
 35 37  2  0  0  0  0
 36 35  1  0  0  0  0
 37 38  1  0  0  0  0
 37 39  1  0  0  0  0
 39 40  1  0  0  0  0
 41 39  2  0  0  0  0
 41 42  1  0  0  0  0
 42 43  1  0  0  0  0
 44 42  1  0  0  0  0
 45 42  1  0  0  0  0
 46 49  1  0  0  0  0
 46 34  1  0  0  0  0
 47 46  1  0  0  0  0
 48 46  1  0  0  0  0
M  END
