3,4
 OpenBabel05122313053D

 18 20  0  0  1  0  0  0  0  0999 V2000
    2.7402   -2.2917    0.0688 S   0  0  0  0  0  0  0  0  0  0  0  0
    4.3416   -1.9383    0.0667 N   0  0  0  0  0  0  0  0  0  0  0  0
    2.1558   -0.7117    0.0113 N   0  0  0  0  0  2  0  0  0  0  0  0
    0.7382    1.8554   -0.0195 N   0  0  0  0  0  0  0  0  0  0  0  0
   -0.0783    2.9192    0.0291 N   0  0  0  0  0  2  0  0  0  0  0  0
    0.6540    4.0186    0.0424 N   0  0  0  0  0  0  0  0  0  0  0  0
    1.9521    3.7003    0.0066 N   0  0  0  0  0  0  0  0  0  0  0  0
    8.0053   -1.1866    0.0415 N   0  0  0  0  0  0  0  0  0  0  0  0
    3.2250    0.1167   -0.0030 C   0  0  1  0  0  3  0  0  0  0  0  0
    3.2197    1.5571   -0.0338 C   0  0  0  0  0  0  0  0  0  0  0  0
    1.9999    2.3519   -0.0270 C   0  0  0  0  0  0  0  0  0  0  0  0
    4.4634    2.1961   -0.0488 C   0  0  0  0  0  0  0  0  0  0  0  0
    4.4614    3.2957   -0.0673 H   0  0  0  0  0  0  0  0  0  0  0  0
    5.6938    1.4939   -0.0320 C   0  0  0  0  0  0  0  0  0  0  0  0
    6.6358    2.0599   -0.0452 H   0  0  0  0  0  0  0  0  0  0  0  0
    5.7428    0.0981    0.0063 C   0  0  0  0  0  0  0  0  0  0  0  0
    6.9784   -0.6172    0.0270 C   0  0  0  0  0  0  0  0  0  0  0  0
    4.4893   -0.6064    0.0246 C   0  0  0  0  0  0  0  0  0  0  0  0
  2  1  1  0  0  0  0
  3  1  1  0  0  0  0
  4  5  1  0  0  0  0
  5  6  1  0  0  0  0
  7  6  2  0  0  0  0
  9 10  1  1  0  0  0
  9  3  1  0  0  0  0
  9 18  1  0  0  0  0
 10 11  1  0  0  0  0
 11  4  2  0  0  0  0
 11  7  1  0  0  0  0
 12 10  2  0  0  0  0
 12 14  1  0  0  0  0
 13 12  1  0  0  0  0
 14 16  2  0  0  0  0
 15 14  1  0  0  0  0
 16 18  1  0  0  0  0
 16 17  1  0  0  0  0
 17  8  3  0  0  0  0
 18  2  2  0  0  0  0
M  END
