2,3
 OpenBabel05122313053D

 51 55  0  0  0  0  0  0  0  0999 V2000
   -3.1745    2.5833   -0.4247 O   0  0  0  0  0  0  0  0  0  0  0  0
    1.5250    0.3332   -0.6015 N   0  0  0  0  0  0  0  0  0  0  0  0
   -1.2670   -0.6839   -0.1787 N   0  0  0  0  0  0  0  0  0  0  0  0
    2.8705    0.4507   -0.9362 C   0  0  0  0  0  0  0  0  0  0  0  0
    3.9580   -0.3794   -0.6049 C   0  0  0  0  0  0  0  0  0  0  0  0
    5.2310   -0.0219   -1.0716 C   0  0  0  0  0  0  0  0  0  0  0  0
    5.4218    1.1370   -1.8603 C   0  0  0  0  0  0  0  0  0  0  0  0
    4.3414    1.9598   -2.2036 C   0  0  0  0  0  3  0  0  0  0  0  0
    3.0511    1.6230   -1.7436 C   0  0  0  0  0  0  0  0  0  0  0  0
    1.7467    2.2243   -1.9048 C   0  0  0  0  0  0  0  0  0  0  0  0
    1.4498    3.4749   -2.6703 C   0  0  0  0  0  0  0  0  0  0  0  0
    0.8564    1.4168   -1.2028 C   0  0  0  0  0  0  0  0  0  0  0  0
   -0.6290    1.6282   -0.9993 C   0  0  0  0  0  0  0  0  0  0  0  0
   -1.4398    0.3517   -1.1209 C   0  0  0  0  0  0  0  0  0  0  0  0
   -2.4250    0.0249   -2.0443 C   0  0  0  0  0  0  0  0  0  0  0  0
   -2.9405    0.8492   -3.1794 C   0  0  0  0  0  0  0  0  0  0  0  0
   -2.9185   -1.2829   -1.6680 C   0  0  0  0  0  0  0  0  0  0  0  0
   -3.9092   -2.1384   -2.1926 C   0  0  0  0  0  3  0  0  0  0  0  0
   -4.1405   -3.3714   -1.5676 C   0  0  0  0  0  0  0  0  0  0  0  0
   -3.4002   -3.7601   -0.4267 C   0  0  0  0  0  0  0  0  0  0  0  0
   -2.4142   -2.9227    0.1157 C   0  0  0  0  0  0  0  0  0  0  0  0
   -2.1793   -1.6872   -0.5104 C   0  0  0  0  0  0  0  0  0  0  0  0
   -0.9485    2.3486    0.3204 C   0  0  0  0  0  0  0  0  0  0  0  0
   -2.2803    2.7744    0.5836 C   0  0  0  0  0  0  0  0  0  0  0  0
   -2.6080    3.3683    1.8180 C   0  0  0  0  0  0  0  0  0  0  0  0
   -1.6085    3.5800    2.7829 C   0  0  0  0  0  0  0  0  0  0  0  0
   -0.2844    3.2131    2.5179 C   0  0  0  0  0  0  0  0  0  0  0  0
    0.0299    2.6022    1.2911 C   0  0  0  0  0  0  0  0  0  0  0  0
   -4.5383    2.8770   -0.1977 C   0  0  0  0  0  0  0  0  0  0  0  0
    3.8080   -1.2960   -0.0147 H   0  0  0  0  0  0  0  0  0  0  0  0
    6.0946   -0.6581   -0.8248 H   0  0  0  0  0  0  0  0  0  0  0  0
    6.4339    1.3904   -2.2109 H   0  0  0  0  0  0  0  0  0  0  0  0
    4.4962    2.8572   -2.8229 H   0  0  0  0  0  0  0  0  0  0  0  0
    1.9208    4.3649   -2.1994 H   0  0  0  0  0  0  0  0  0  0  0  0
    0.3624    3.6766   -2.7332 H   0  0  0  0  0  0  0  0  0  0  0  0
    1.8412    3.4194   -3.7085 H   0  0  0  0  0  0  0  0  0  0  0  0
   -0.9786    2.2876   -1.8186 H   0  0  0  0  0  0  0  0  0  0  0  0
   -4.0218    1.0766   -3.0560 H   0  0  0  0  0  0  0  0  0  0  0  0
   -2.8371    0.3159   -4.1485 H   0  0  0  0  0  0  0  0  0  0  0  0
   -2.4077    1.8149   -3.2696 H   0  0  0  0  0  0  0  0  0  0  0  0
   -4.4906   -1.8431   -3.0800 H   0  0  0  0  0  0  0  0  0  0  0  0
   -4.9114   -4.0484   -1.9663 H   0  0  0  0  0  0  0  0  0  0  0  0
   -3.6052   -4.7317    0.0482 H   0  0  0  0  0  0  0  0  0  0  0  0
   -1.8403   -3.2229    1.0044 H   0  0  0  0  0  0  0  0  0  0  0  0
   -3.6393    3.6810    2.0286 H   0  0  0  0  0  0  0  0  0  0  0  0
   -1.8763    4.0499    3.7415 H   0  0  0  0  0  0  0  0  0  0  0  0
    0.5087    3.4010    3.2565 H   0  0  0  0  0  0  0  0  0  0  0  0
    1.0663    2.3149    1.0708 H   0  0  0  0  0  0  0  0  0  0  0  0
   -4.9508    2.2846    0.6491 H   0  0  0  0  0  0  0  0  0  0  0  0
   -5.0743    2.5995   -1.1242 H   0  0  0  0  0  0  0  0  0  0  0  0
   -4.7035    3.9589    0.0067 H   0  0  0  0  0  0  0  0  0  0  0  0
  1 29  1  0  0  0  0
  1 24  1  0  0  0  0
  4  5  2  0  0  0  0
  4  2  1  0  0  0  0
  5 30  1  0  0  0  0
  6 31  1  0  0  0  0
  6  5  1  0  0  0  0
  7  6  2  0  0  0  0
  8  7  1  0  0  0  0
  8  9  1  0  0  0  0
  9  4  1  0  0  0  0
 10  9  2  0  0  0  0
 10 12  1  0  0  0  0
 11 34  1  0  0  0  0
 11 10  1  0  0  0  0
 12 13  1  0  0  0  0
 12  2  2  0  0  0  0
 13 23  1  0  0  0  0
 14 13  1  0  0  0  0
 14  3  2  0  0  0  0
 15 17  2  0  0  0  0
 15 14  1  0  0  0  0
 16 38  1  0  0  0  0
 16 15  1  0  0  0  0
 17 22  1  0  0  0  0
 18 17  1  0  0  0  0
 18 19  1  0  0  0  0
 19 20  2  0  0  0  0
 20 43  1  0  0  0  0
 20 21  1  0  0  0  0
 21 44  1  0  0  0  0
 22  3  1  0  0  0  0
 22 21  2  0  0  0  0
 23 24  2  0  0  0  0
 23 28  1  0  0  0  0
 24 25  1  0  0  0  0
 25 45  1  0  0  0  0
 25 26  2  0  0  0  0
 26 46  1  0  0  0  0
 27 26  1  0  0  0  0
 27 47  1  0  0  0  0
 28 27  2  0  0  0  0
 29 51  1  0  0  0  0
 29 49  1  0  0  0  0
 32  7  1  0  0  0  0
 33  8  1  0  0  0  0
 35 11  1  0  0  0  0
 36 11  1  0  0  0  0
 37 13  1  0  0  0  0
 39 16  1  0  0  0  0
 40 16  1  0  0  0  0
 41 18  1  0  0  0  0
 42 19  1  0  0  0  0
 48 28  1  0  0  0  0
 50 29  1  0  0  0  0
M  END
