2,4
 OpenBabel05122313053D

 29 28  0  0  1  0  0  0  0  0999 V2000
   -1.2142   -0.9272    2.5840 O   0  0  0  0  0  0  0  0  0  0  0  0
   -1.3675   -0.3452    1.4159 N   0  0  0  0  0  2  0  0  0  0  0  0
   -2.5860   -0.0387    1.0321 C   0  0  2  0  0  3  0  0  0  0  0  0
   -1.3819    0.4562   -1.0175 N   0  0  0  0  0  0  0  0  0  0  0  0
   -1.1682    1.3066   -1.5598 H   0  0  0  0  0  0  0  0  0  0  0  0
   -2.6686    0.7554   -0.2581 C   0  0  0  0  0  0  0  0  0  0  0  0
   -3.7432   -0.3234    1.9284 C   0  0  0  0  0  0  0  0  0  0  0  0
   -3.8137   -1.4137    2.1274 H   0  0  0  0  0  0  0  0  0  0  0  0
   -4.7012    0.0286    1.5086 H   0  0  0  0  0  0  0  0  0  0  0  0
   -3.5798    0.1458    2.9216 H   0  0  0  0  0  0  0  0  0  0  0  0
   -2.6658    2.2575    0.0963 C   0  0  0  0  0  0  0  0  0  0  0  0
   -3.5584    2.5004    0.7034 H   0  0  0  0  0  0  0  0  0  0  0  0
   -2.7000    2.8870   -0.8178 H   0  0  0  0  0  0  0  0  0  0  0  0
   -1.7740    2.5252    0.6943 H   0  0  0  0  0  0  0  0  0  0  0  0
   -3.9238    0.4475   -1.0897 C   0  0  0  0  0  0  0  0  0  0  0  0
   -4.0556   -0.6311   -1.2938 H   0  0  0  0  0  0  0  0  0  0  0  0
   -3.8954    0.9936   -2.0535 H   0  0  0  0  0  0  0  0  0  0  0  0
   -4.8242    0.7974   -0.5515 H   0  0  0  0  0  0  0  0  0  0  0  0
   -1.4242   -0.6797   -1.9889 C   0  0  0  0  0  0  0  0  0  0  0  0
   -0.4687   -0.6424   -2.5540 H   0  0  0  0  0  0  0  0  0  0  0  0
   -2.2256   -0.5089   -2.7388 H   0  0  0  0  0  0  0  0  0  0  0  0
   -1.5829   -2.0626   -1.3586 C   0  0  0  0  0  0  0  0  0  0  0  0
   -2.5429   -2.1199   -0.8049 H   0  0  0  0  0  0  0  0  0  0  0  0
   -0.7977   -2.2044   -0.5832 H   0  0  0  0  0  0  0  0  0  0  0  0
   -1.5128   -3.1709   -2.4082 C   0  0  0  0  0  0  0  0  0  0  0  0
   -2.3069   -3.0586   -3.1744 H   0  0  0  0  0  0  0  0  0  0  0  0
   -1.6385   -4.1668   -1.9422 H   0  0  0  0  0  0  0  0  0  0  0  0
   -0.5373   -3.1697   -2.9377 H   0  0  0  0  0  0  0  0  0  0  0  0
   -0.0622   -1.0179    2.7143 H   0  0  0  0  0  0  0  0  0  0  0  0
  1 29  1  0  0  0  0
  2  1  1  0  0  0  0
  3  2  1  1  0  0  0
  3  7  1  0  0  0  0
  4  6  1  0  0  0  0
  5  4  1  0  0  0  0
  6 11  1  0  0  0  0
  6  3  1  0  0  0  0
  7  8  1  0  0  0  0
  7 10  1  0  0  0  0
  9  7  1  0  0  0  0
 11 14  1  0  0  0  0
 11 12  1  0  0  0  0
 13 11  1  0  0  0  0
 15 18  1  0  0  0  0
 15  6  1  0  0  0  0
 16 15  1  0  0  0  0
 17 15  1  0  0  0  0
 19 22  1  0  0  0  0
 19  4  1  0  0  0  0
 20 19  1  0  0  0  0
 21 19  1  0  0  0  0
 22 23  1  0  0  0  0
 22 24  1  0  0  0  0
 25 27  1  0  0  0  0
 25 22  1  0  0  0  0
 26 25  1  0  0  0  0
 28 25  1  0  0  0  0
M  END
