1,4
 OpenBabel05122313053D

 22 24  0  0  1  0  0  0  0  0999 V2000
   -1.2657    1.1017   -0.0365 N   0  0  0  0  0  2  0  0  0  0  0  0
   -2.1478    2.8750    0.9694 N   0  0  0  0  0  0  0  0  0  0  0  0
   -2.3205    3.8546    1.1957 H   0  0  0  0  0  0  0  0  0  0  0  0
    1.0347    1.5656   -1.8213 N   0  0  0  0  0  0  0  0  0  0  0  0
    2.3459    1.5150   -2.1745 N   0  0  0  0  0  0  0  0  0  0  0  0
    2.8713    2.6923   -1.9488 N   0  0  0  0  0  0  0  0  0  0  0  0
    1.9463    3.5403   -1.4314 N   0  0  0  0  0  0  0  0  0  0  0  0
   -2.1948    0.6469    0.8963 C   0  0  0  0  0  0  0  0  0  0  0  0
   -2.6108   -0.6566    1.2210 C   0  0  0  0  0  0  0  0  0  0  0  0
   -2.2089   -1.5335    0.6956 H   0  0  0  0  0  0  0  0  0  0  0  0
   -3.5852   -0.7874    2.2165 C   0  0  0  0  0  0  0  0  0  0  0  0
   -3.9427   -1.7919    2.4858 H   0  0  0  0  0  0  0  0  0  0  0  0
   -4.1348    0.3395    2.8744 C   0  0  0  0  0  0  0  0  0  0  0  0
   -4.9007    0.1882    3.6494 H   0  0  0  0  0  0  0  0  0  0  0  0
   -3.7375    1.6441    2.5544 C   0  0  0  0  0  0  0  0  0  0  0  0
   -4.1733    2.5182    3.0593 H   0  0  0  0  0  0  0  0  0  0  0  0
   -2.7646    1.7731    1.5526 C   0  0  0  0  0  0  0  0  0  0  0  0
   -1.2623    2.4332    0.0236 C   0  0  2  0  0  3  0  0  0  0  0  0
   -0.4918    3.3545   -0.8741 C   0  0  0  0  0  0  0  0  0  0  0  0
   -1.1421    3.5923   -1.7487 H   0  0  0  0  0  0  0  0  0  0  0  0
   -0.2979    4.3180   -0.3625 H   0  0  0  0  0  0  0  0  0  0  0  0
    0.8230    2.8234   -1.3578 C   0  0  0  0  0  3  0  0  0  0  0  0
  1 18  1  0  0  0  0
  1  8  1  0  0  0  0
  2  3  1  0  0  0  0
  2 17  1  0  0  0  0
  4 22  1  0  0  0  0
  5  6  1  0  0  0  0
  5  4  2  0  0  0  0
  6  7  2  0  0  0  0
  7 22  1  0  0  0  0
  8  9  2  0  0  0  0
  8 17  1  0  0  0  0
  9 11  1  0  0  0  0
 10  9  1  0  0  0  0
 11 12  1  0  0  0  0
 11 13  2  0  0  0  0
 13 14  1  0  0  0  0
 15 13  1  0  0  0  0
 15 16  1  0  0  0  0
 17 15  2  0  0  0  0
 18 19  1  6  0  0  0
 18  2  1  0  0  0  0
 19 21  1  0  0  0  0
 20 19  1  0  0  0  0
 22 19  1  0  0  0  0
M  END
