3,4
 OpenBabel05122313053D

 42 43  0  0  1  0  0  0  0  0999 V2000
   -1.9397   -2.5836   -0.5625 O   0  0  0  0  0  0  0  0  0  0  0  0
    3.0327   -1.9682   -0.7746 O   0  0  0  0  0  0  0  0  0  0  0  0
    1.6780   -0.1979   -0.5232 N   0  0  0  0  0  2  0  0  0  0  0  0
   -1.2358   -0.4944   -0.1440 N   0  0  0  0  0  2  0  0  0  0  0  0
    1.8714   -1.3663   -1.0591 C   0  0  1  0  0  3  0  0  0  0  0  0
    0.9817   -2.1622   -1.9656 C   0  0  0  0  0  0  0  0  0  0  0  0
    0.9417   -3.1910   -1.5497 H   0  0  0  0  0  0  0  0  0  0  0  0
    1.5108   -2.2654   -2.9369 H   0  0  0  0  0  0  0  0  0  0  0  0
   -0.4332   -1.6159   -2.2028 C   0  0  0  0  0  0  0  0  0  0  0  0
   -0.3899   -0.6072   -2.6596 H   0  0  0  0  0  0  0  0  0  0  0  0
   -0.9617   -2.2918   -2.9017 H   0  0  0  0  0  0  0  0  0  0  0  0
   -1.2250   -1.5210   -0.9381 C   0  0  1  0  0  3  0  0  0  0  0  0
   -2.5081   -2.2712    0.7465 C   0  0  0  0  0  0  0  0  0  0  0  0
   -2.0566   -2.9682    1.4788 H   0  0  0  0  0  0  0  0  0  0  0  0
   -3.5968   -2.4613    0.6919 H   0  0  0  0  0  0  0  0  0  0  0  0
   -2.1382   -0.7818    0.9935 C   0  0  2  0  0  0  0  0  0  0  0  0
   -1.5576   -0.6753    1.9339 H   0  0  0  0  0  0  0  0  0  0  0  0
   -3.3357    0.1929    1.0584 C   0  0  0  0  0  0  0  0  0  0  0  0
   -2.8854    1.2006    1.1878 H   0  0  0  0  0  0  0  0  0  0  0  0
   -4.1922   -0.0993    2.2964 C   0  0  0  0  0  0  0  0  0  0  0  0
   -4.9994    0.6520    2.3979 H   0  0  0  0  0  0  0  0  0  0  0  0
   -3.5913   -0.0761    3.2283 H   0  0  0  0  0  0  0  0  0  0  0  0
   -4.6830   -1.0932    2.2331 H   0  0  0  0  0  0  0  0  0  0  0  0
   -4.1618    0.2010   -0.2309 C   0  0  0  0  0  0  0  0  0  0  0  0
   -3.5391    0.4361   -1.1177 H   0  0  0  0  0  0  0  0  0  0  0  0
   -4.9650    0.9616   -0.1724 H   0  0  0  0  0  0  0  0  0  0  0  0
   -4.6591   -0.7748   -0.4131 H   0  0  0  0  0  0  0  0  0  0  0  0
    3.8180   -1.0422    0.0282 C   0  0  0  0  0  0  0  0  0  0  0  0
    4.6787   -0.7123   -0.5859 H   0  0  0  0  0  0  0  0  0  0  0  0
    4.1953   -1.5947    0.9096 H   0  0  0  0  0  0  0  0  0  0  0  0
    2.8287    0.0977    0.3668 C   0  0  2  0  0  0  0  0  0  0  0  0
    3.2490    1.0830    0.0793 H   0  0  0  0  0  0  0  0  0  0  0  0
    2.3830    0.1794    1.8463 C   0  0  0  0  0  0  0  0  0  0  0  0
    1.6030    0.9763    1.8674 H   0  0  0  0  0  0  0  0  0  0  0  0
    1.7403   -1.1188    2.3453 C   0  0  0  0  0  0  0  0  0  0  0  0
    0.8812   -1.4192    1.7120 H   0  0  0  0  0  0  0  0  0  0  0  0
    1.3679   -0.9931    3.3810 H   0  0  0  0  0  0  0  0  0  0  0  0
    2.4630   -1.9610    2.3643 H   0  0  0  0  0  0  0  0  0  0  0  0
    3.5480    0.6291    2.7347 C   0  0  0  0  0  0  0  0  0  0  0  0
    3.9841    1.5878    2.3875 H   0  0  0  0  0  0  0  0  0  0  0  0
    4.3624   -0.1252    2.7559 H   0  0  0  0  0  0  0  0  0  0  0  0
    3.2117    0.7704    3.7804 H   0  0  0  0  0  0  0  0  0  0  0  0
  1 13  1  0  0  0  0
  2 28  1  0  0  0  0
  3 31  1  0  0  0  0
  4 16  1  0  0  0  0
  5  6  1  6  0  0  0
  5  2  1  0  0  0  0
  5  3  1  0  0  0  0
  6  7  1  0  0  0  0
  8  6  1  0  0  0  0
  9  6  1  0  0  0  0
 10  9  1  0  0  0  0
 11  9  1  0  0  0  0
 12  9  1  1  0  0  0
 12  1  1  0  0  0  0
 12  4  1  0  0  0  0
 13 16  1  0  0  0  0
 13 14  1  0  0  0  0
 15 13  1  0  0  0  0
 16 18  1  0  0  0  0
 16 17  1  1  0  0  0
 18 19  1  0  0  0  0
 18 20  1  0  0  0  0
 20 21  1  0  0  0  0
 20 22  1  0  0  0  0
 23 20  1  0  0  0  0
 24 26  1  0  0  0  0
 24 18  1  0  0  0  0
 25 24  1  0  0  0  0
 27 24  1  0  0  0  0
 28 31  1  0  0  0  0
 28 30  1  0  0  0  0
 29 28  1  0  0  0  0
 31 32  1  6  0  0  0
 31 33  1  0  0  0  0
 33 34  1  0  0  0  0
 33 35  1  0  0  0  0
 33 39  1  0  0  0  0
 35 38  1  0  0  0  0
 35 37  1  0  0  0  0
 36 35  1  0  0  0  0
 39 41  1  0  0  0  0
 39 42  1  0  0  0  0
 40 39  1  0  0  0  0
M  END
