1,2
 OpenBabel05122313053D

 54 60  0  0  0  0  0  0  0  0999 V2000
    1.2885   -0.1143    0.3291 N   0  0  0  0  0  2  0  0  0  0  0  0
   -1.2885   -0.1143   -0.3291 N   0  0  0  0  0  2  0  0  0  0  0  0
    0.7163    1.0602    0.1825 C   0  0  0  0  0  0  0  0  0  0  0  0
    1.1634    2.4542    0.2786 C   0  0  0  0  0  0  0  0  0  0  0  0
    2.3684    3.1016    0.5465 C   0  0  0  0  0  0  0  0  0  0  0  0
    3.2842    2.5358    0.7651 H   0  0  0  0  0  0  0  0  0  0  0  0
    2.3883    4.5252    0.5370 C   0  0  0  0  0  0  0  0  0  0  0  0
    3.3396    5.0369    0.7467 H   0  0  0  0  0  0  0  0  0  0  0  0
    1.2500    5.2907    0.2800 C   0  0  0  0  0  0  0  0  0  0  0  0
    1.3110    6.3898    0.2918 H   0  0  0  0  0  0  0  0  0  0  0  0
   -0.0000    4.6582    0.0000 C   0  0  0  0  0  0  0  0  0  0  0  0
   -1.2500    5.2907   -0.2800 C   0  0  0  0  0  0  0  0  0  0  0  0
   -1.3110    6.3898   -0.2918 H   0  0  0  0  0  0  0  0  0  0  0  0
   -2.3884    4.5252   -0.5370 C   0  0  0  0  0  0  0  0  0  0  0  0
   -3.3396    5.0369   -0.7467 H   0  0  0  0  0  0  0  0  0  0  0  0
   -2.3684    3.1016   -0.5465 C   0  0  0  0  0  0  0  0  0  0  0  0
   -3.2843    2.5358   -0.7651 H   0  0  0  0  0  0  0  0  0  0  0  0
   -1.1634    2.4542   -0.2786 C   0  0  0  0  0  0  0  0  0  0  0  0
   -0.7163    1.0602   -0.1825 C   0  0  0  0  0  0  0  0  0  0  0  0
   -0.0000    3.2422    0.0000 C   0  0  0  0  0  0  0  0  0  0  0  0
    2.6520   -0.2053    0.7213 C   0  0  0  0  0  0  0  0  0  0  0  0
    3.6392   -0.5784   -0.2478 C   0  0  0  0  0  0  0  0  0  0  0  0
    3.3161   -0.8719   -1.6032 C   0  0  0  0  0  0  0  0  0  0  0  0
    2.2637   -0.8488   -1.9195 H   0  0  0  0  0  0  0  0  0  0  0  0
    4.3127   -1.2114   -2.5052 C   0  0  0  0  0  0  0  0  0  0  0  0
    4.0486   -1.4498   -3.5463 H   0  0  0  0  0  0  0  0  0  0  0  0
    5.6706   -1.2698   -2.0918 C   0  0  0  0  0  0  0  0  0  0  0  0
    6.4507   -1.5440   -2.8180 H   0  0  0  0  0  0  0  0  0  0  0  0
    6.0125   -0.9910   -0.7778 C   0  0  0  0  0  0  0  0  0  0  0  0
    7.0625   -1.0395   -0.4498 H   0  0  0  0  0  0  0  0  0  0  0  0
    5.0153   -0.6398    0.1796 C   0  0  0  0  0  0  0  0  0  0  0  0
    5.3423   -0.3523    1.5370 C   0  0  0  0  0  0  0  0  0  0  0  0
    6.3958   -0.4119    1.8507 H   0  0  0  0  0  0  0  0  0  0  0  0
    4.3540   -0.0150    2.4500 C   0  0  0  0  0  0  0  0  0  0  0  0
    4.6124    0.1893    3.4996 H   0  0  0  0  0  0  0  0  0  0  0  0
    3.0000    0.0623    2.0416 C   0  0  0  0  0  0  0  0  0  0  0  0
    2.2092    0.3191    2.7611 H   0  0  0  0  0  0  0  0  0  0  0  0
   -2.6520   -0.2053   -0.7213 C   0  0  0  0  0  0  0  0  0  0  0  0
   -3.6392   -0.5784    0.2478 C   0  0  0  0  0  0  0  0  0  0  0  0
   -3.3161   -0.8719    1.6031 C   0  0  0  0  0  0  0  0  0  0  0  0
   -2.2637   -0.8488    1.9195 H   0  0  0  0  0  0  0  0  0  0  0  0
   -4.3127   -1.2114    2.5052 C   0  0  0  0  0  0  0  0  0  0  0  0
   -4.0486   -1.4498    3.5463 H   0  0  0  0  0  0  0  0  0  0  0  0
   -5.6706   -1.2697    2.0918 C   0  0  0  0  0  0  0  0  0  0  0  0
   -6.4507   -1.5440    2.8180 H   0  0  0  0  0  0  0  0  0  0  0  0
   -6.0125   -0.9910    0.7778 C   0  0  0  0  0  0  0  0  0  0  0  0
   -7.0625   -1.0395    0.4498 H   0  0  0  0  0  0  0  0  0  0  0  0
   -5.0153   -0.6398   -0.1796 C   0  0  0  0  0  0  0  0  0  0  0  0
   -5.3423   -0.3523   -1.5371 C   0  0  0  0  0  0  0  0  0  0  0  0
   -6.3958   -0.4119   -1.8508 H   0  0  0  0  0  0  0  0  0  0  0  0
   -4.3540   -0.0150   -2.4500 C   0  0  0  0  0  0  0  0  0  0  0  0
   -4.6124    0.1892   -3.4997 H   0  0  0  0  0  0  0  0  0  0  0  0
   -2.9999    0.0623   -2.0416 C   0  0  0  0  0  0  0  0  0  0  0  0
   -2.2092    0.3190   -2.7611 H   0  0  0  0  0  0  0  0  0  0  0  0
  1 21  1  0  0  0  0
  2 19  1  0  0  0  0
  3  4  1  0  0  0  0
  3  1  1  0  0  0  0
  4  5  1  0  0  0  0
  5  6  1  0  0  0  0
  7  5  2  0  0  0  0
  7  8  1  0  0  0  0
  9 10  1  0  0  0  0
  9  7  1  0  0  0  0
 11  9  2  0  0  0  0
 12 11  1  0  0  0  0
 13 12  1  0  0  0  0
 14 12  2  0  0  0  0
 15 14  1  0  0  0  0
 16 14  1  0  0  0  0
 16 18  2  0  0  0  0
 17 16  1  0  0  0  0
 18 19  1  0  0  0  0
 18 20  1  0  0  0  0
 19  3  2  0  0  0  0
 20 11  1  0  0  0  0
 20  4  2  0  0  0  0
 21 36  1  0  0  0  0
 22 31  1  0  0  0  0
 22 21  2  0  0  0  0
 23 22  1  0  0  0  0
 24 23  1  0  0  0  0
 25 27  1  0  0  0  0
 25 23  2  0  0  0  0
 26 25  1  0  0  0  0
 27 29  2  0  0  0  0
 28 27  1  0  0  0  0
 29 30  1  0  0  0  0
 29 31  1  0  0  0  0
 31 32  2  0  0  0  0
 32 33  1  0  0  0  0
 32 34  1  0  0  0  0
 34 35  1  0  0  0  0
 36 34  2  0  0  0  0
 36 37  1  0  0  0  0
 38  2  1  0  0  0  0
 38 39  1  0  0  0  0
 39 40  1  0  0  0  0
 40 41  1  0  0  0  0
 40 42  2  0  0  0  0
 42 43  1  0  0  0  0
 44 42  1  0  0  0  0
 44 45  1  0  0  0  0
 46 44  2  0  0  0  0
 47 46  1  0  0  0  0
 48 39  2  0  0  0  0
 48 46  1  0  0  0  0
 49 48  1  0  0  0  0
 50 49  1  0  0  0  0
 51 53  1  0  0  0  0
 51 49  2  0  0  0  0
 52 51  1  0  0  0  0
 53 38  2  0  0  0  0
 54 53  1  0  0  0  0
M  END
