3,23
 OpenBabel05122313053D

 40 42  0  0  1  0  0  0  0  0999 V2000
   -2.2311   -2.7779   -1.3073 O   0  0  0  0  0  0  0  0  0  0  0  0
   -2.5743   -3.1356   -2.1467 H   0  0  0  0  0  0  0  0  0  0  0  0
    0.4655   -1.3936    0.6500 N   0  0  0  0  0  2  0  0  0  0  0  0
   -0.9021   -1.4205    0.6658 N   0  0  0  0  0  0  0  0  0  0  0  0
   -2.8206   -2.5652    1.8120 C   0  0  0  0  0  0  0  0  0  0  0  0
   -3.3844   -1.6162    1.9238 H   0  0  0  0  0  0  0  0  0  0  0  0
   -2.9716   -3.1686    2.7256 H   0  0  0  0  0  0  0  0  0  0  0  0
   -3.2570   -3.1146    0.9525 H   0  0  0  0  0  0  0  0  0  0  0  0
   -1.3664   -2.3162    1.5998 C   0  0  1  0  0  3  0  0  0  0  0  0
   -0.2356   -2.8587    2.2059 C   0  0  0  0  0  0  0  0  0  0  0  0
   -0.2227   -3.6026    3.0088 H   0  0  0  0  0  0  0  0  0  0  0  0
    0.8921   -2.2572    1.5856 C   0  0  0  0  0  0  0  0  0  0  0  0
    2.3485   -2.4533    1.8444 C   0  0  0  0  0  0  0  0  0  0  0  0
    2.8857   -2.5227    0.8758 H   0  0  0  0  0  0  0  0  0  0  0  0
    2.5204   -3.3660    2.4444 H   0  0  0  0  0  0  0  0  0  0  0  0
    2.7726   -1.5868    2.3937 H   0  0  0  0  0  0  0  0  0  0  0  0
   -1.6375   -0.7070   -0.3152 C   0  0  0  0  0  0  0  0  0  0  0  0
   -2.2920   -1.4217   -1.3443 C   0  0  0  0  0  0  0  0  0  0  0  0
   -2.9586   -0.6996   -2.3502 C   0  0  0  0  0  0  0  0  0  0  0  0
   -3.4662   -1.2446   -3.1614 H   0  0  0  0  0  0  0  0  0  0  0  0
   -2.2316    2.7774   -1.3075 O   0  0  0  0  0  0  0  0  0  0  0  0
   -2.5749    3.1350   -2.1469 H   0  0  0  0  0  0  0  0  0  0  0  0
    0.4652    1.3936    0.6502 N   0  0  0  0  0  2  0  0  0  0  0  0
   -0.9024    1.4203    0.6658 N   0  0  0  0  0  0  0  0  0  0  0  0
   -2.8212    2.5649    1.8118 C   0  0  0  0  0  0  0  0  0  0  0  0
   -3.3849    1.6159    1.9236 H   0  0  0  0  0  0  0  0  0  0  0  0
   -2.9723    3.1684    2.7253 H   0  0  0  0  0  0  0  0  0  0  0  0
   -3.2576    3.1142    0.9522 H   0  0  0  0  0  0  0  0  0  0  0  0
   -1.3670    2.3160    1.5997 C   0  0  2  0  0  3  0  0  0  0  0  0
   -0.2363    2.8587    2.2059 C   0  0  0  0  0  0  0  0  0  0  0  0
   -0.2235    3.6026    3.0088 H   0  0  0  0  0  0  0  0  0  0  0  0
    0.8916    2.2572    1.5858 C   0  0  0  0  0  0  0  0  0  0  0  0
    2.3479    2.4533    1.8449 C   0  0  0  0  0  0  0  0  0  0  0  0
    2.8851    2.5237    0.8764 H   0  0  0  0  0  0  0  0  0  0  0  0
    2.5196    3.3655    2.4458 H   0  0  0  0  0  0  0  0  0  0  0  0
    2.7722    1.5863    2.3932 H   0  0  0  0  0  0  0  0  0  0  0  0
   -1.6377    0.7066   -0.3152 C   0  0  0  0  0  0  0  0  0  0  0  0
   -2.2923    1.4212   -1.3444 C   0  0  0  0  0  0  0  0  0  0  0  0
   -2.9587    0.6989   -2.3502 C   0  0  0  0  0  0  0  0  0  0  0  0
   -3.4665    1.2437   -3.1615 H   0  0  0  0  0  0  0  0  0  0  0  0
  2  1  1  0  0  0  0
  3  4  1  0  0  0  0
  3 12  1  0  0  0  0
  4  9  1  0  0  0  0
  5  6  1  0  0  0  0
  5  7  1  0  0  0  0
  8  5  1  0  0  0  0
  9  5  1  6  0  0  0
  9 10  1  0  0  0  0
 10 11  1  0  0  0  0
 12 13  1  0  0  0  0
 12 10  2  0  0  0  0
 13 16  1  0  0  0  0
 13 15  1  0  0  0  0
 14 13  1  0  0  0  0
 17  4  1  0  0  0  0
 18  1  1  0  0  0  0
 18 17  2  0  0  0  0
 19 18  1  0  0  0  0
 20 19  1  0  0  0  0
 22 21  1  0  0  0  0
 23 24  1  0  0  0  0
 23 32  1  0  0  0  0
 24 29  1  0  0  0  0
 25 26  1  0  0  0  0
 25 27  1  0  0  0  0
 28 25  1  0  0  0  0
 29 25  1  6  0  0  0
 29 30  1  0  0  0  0
 30 31  1  0  0  0  0
 32 33  1  0  0  0  0
 32 30  2  0  0  0  0
 33 36  1  0  0  0  0
 33 35  1  0  0  0  0
 34 33  1  0  0  0  0
 37 17  1  0  0  0  0
 37 24  1  0  0  0  0
 38 21  1  0  0  0  0
 38 37  2  0  0  0  0
 39 19  2  0  0  0  0
 39 38  1  0  0  0  0
 40 39  1  0  0  0  0
M  END
