2,3
 OpenBabel05122313053D

 55 57  0  0  1  0  0  0  0  0999 V2000
   -1.3709    0.9539    0.1940 N   0  0  0  0  0  0  0  0  0  0  0  0
    0.9879    1.3289   -0.2940 N   0  0  0  0  0  2  0  0  0  0  0  0
    1.1844   -1.2428   -0.8286 N   0  0  0  0  0  2  0  0  0  0  0  0
   -2.6510    2.6320    1.4941 C   0  0  0  0  0  0  0  0  0  0  0  0
   -2.5975    2.0684    2.4487 H   0  0  0  0  0  0  0  0  0  0  0  0
   -3.6346    2.3947    1.0491 H   0  0  0  0  0  0  0  0  0  0  0  0
   -2.6086    3.7112    1.7255 H   0  0  0  0  0  0  0  0  0  0  0  0
   -1.4954    2.2488    0.6176 C   0  0  1  0  0  3  0  0  0  0  0  0
   -0.4613    3.1333    0.3392 C   0  0  0  0  0  3  0  0  0  0  0  0
   -0.5536    4.1777    0.6612 H   0  0  0  0  0  0  0  0  0  0  0  0
    0.8435    2.5920    0.0728 C   0  0  1  0  0  3  0  0  0  0  0  0
    2.0346    3.4558    0.3649 C   0  0  0  0  0  0  0  0  0  0  0  0
    2.5118    3.1666    1.3227 H   0  0  0  0  0  0  0  0  0  0  0  0
    1.7334    4.5176    0.4379 H   0  0  0  0  0  0  0  0  0  0  0  0
    2.8037    3.3435   -0.4212 H   0  0  0  0  0  0  0  0  0  0  0  0
   -0.2536    0.7283   -0.7781 C   0  0  1  0  0  0  0  0  0  0  0  0
   -0.5553    1.2720   -1.7159 H   0  0  0  0  0  0  0  0  0  0  0  0
   -0.0403   -0.7359   -1.1197 C   0  0  1  0  0  3  0  0  0  0  0  0
    1.4187   -2.5527   -1.0875 C   0  0  0  0  0  0  0  0  0  0  0  0
    2.4204   -2.9219   -0.8297 H   0  0  0  0  0  0  0  0  0  0  0  0
    0.4669   -3.3976   -1.6614 C   0  0  0  0  0  0  0  0  0  0  0  0
    0.7196   -4.4519   -1.8426 H   0  0  0  0  0  0  0  0  0  0  0  0
   -0.7825   -2.8681   -2.0107 C   0  0  0  0  0  0  0  0  0  0  0  0
   -1.5549   -3.4897   -2.4860 H   0  0  0  0  0  0  0  0  0  0  0  0
   -1.0289   -1.5184   -1.7368 C   0  0  0  0  0  0  0  0  0  0  0  0
   -1.9957   -1.0742   -1.9937 H   0  0  0  0  0  0  0  0  0  0  0  0
   -2.4047   -0.0193    0.4090 C   0  0  0  0  0  0  0  0  0  0  0  0
   -2.1598   -1.0886    1.3092 C   0  0  0  0  0  0  0  0  0  0  0  0
   -3.1625   -2.0620    1.4682 C   0  0  0  0  0  0  0  0  0  0  0  0
   -2.9930   -2.9005    2.1592 H   0  0  0  0  0  0  0  0  0  0  0  0
   -4.3667   -1.9810    0.7588 C   0  0  0  0  0  0  0  0  0  0  0  0
   -5.1383   -2.7541    0.8938 H   0  0  0  0  0  0  0  0  0  0  0  0
   -4.5912   -0.9172   -0.1229 C   0  0  0  0  0  0  0  0  0  0  0  0
   -5.5403   -0.8659   -0.6775 H   0  0  0  0  0  0  0  0  0  0  0  0
   -3.6211    0.0838   -0.3238 C   0  0  0  0  0  0  0  0  0  0  0  0
   -0.8596   -1.1681    2.0952 C   0  0  0  0  0  0  0  0  0  0  0  0
   -0.1052   -0.5730    1.5447 H   0  0  0  0  0  0  0  0  0  0  0  0
   -1.0137   -0.5124    3.4794 C   0  0  0  0  0  0  0  0  0  0  0  0
   -1.3538    0.5391    3.3955 H   0  0  0  0  0  0  0  0  0  0  0  0
   -0.0402   -0.5104    4.0086 H   0  0  0  0  0  0  0  0  0  0  0  0
   -1.7535   -1.0601    4.0996 H   0  0  0  0  0  0  0  0  0  0  0  0
   -0.3119   -2.5960    2.2173 C   0  0  0  0  0  0  0  0  0  0  0  0
   -0.9413   -3.2290    2.8768 H   0  0  0  0  0  0  0  0  0  0  0  0
    0.7037   -2.5695    2.6581 H   0  0  0  0  0  0  0  0  0  0  0  0
   -0.2453   -3.0920    1.2288 H   0  0  0  0  0  0  0  0  0  0  0  0
   -3.9025    1.2046   -1.3277 C   0  0  0  0  0  0  0  0  0  0  0  0
   -3.1255    1.9856   -1.1999 H   0  0  0  0  0  0  0  0  0  0  0  0
   -3.8099    0.7202   -2.7879 C   0  0  0  0  0  0  0  0  0  0  0  0
   -2.7851    0.4026   -3.0618 H   0  0  0  0  0  0  0  0  0  0  0  0
   -4.0937    1.5364   -3.4828 H   0  0  0  0  0  0  0  0  0  0  0  0
   -4.4936   -0.1340   -2.9723 H   0  0  0  0  0  0  0  0  0  0  0  0
   -5.2714    1.8657   -1.0839 C   0  0  0  0  0  0  0  0  0  0  0  0
   -6.1065    1.1760   -1.3229 H   0  0  0  0  0  0  0  0  0  0  0  0
   -5.3890    2.7592   -1.7295 H   0  0  0  0  0  0  0  0  0  0  0  0
   -5.3994    2.1856   -0.0303 H   0  0  0  0  0  0  0  0  0  0  0  0
  1 27  1  0  0  0  0
  1  8  1  0  0  0  0
  2 11  1  0  0  0  0
  4  7  1  0  0  0  0
  4  5  1  0  0  0  0
  6  4  1  0  0  0  0
  8  4  1  1  0  0  0
  9  8  1  0  0  0  0
  9 10  1  0  0  0  0
 11  9  1  0  0  0  0
 11 12  1  1  0  0  0
 12 14  1  0  0  0  0
 12 13  1  0  0  0  0
 15 12  1  0  0  0  0
 16 17  1  6  0  0  0
 16  2  1  0  0  0  0
 16  1  1  0  0  0  0
 18 25  1  6  0  0  0
 18  3  1  0  0  0  0
 18 16  1  0  0  0  0
 19 20  1  0  0  0  0
 19  3  1  0  0  0  0
 21 19  2  0  0  0  0
 22 21  1  0  0  0  0
 23 25  2  0  0  0  0
 23 21  1  0  0  0  0
 24 23  1  0  0  0  0
 26 25  1  0  0  0  0
 27 28  1  0  0  0  0
 28 29  2  0  0  0  0
 28 36  1  0  0  0  0
 29 30  1  0  0  0  0
 31 32  1  0  0  0  0
 31 29  1  0  0  0  0
 33 31  2  0  0  0  0
 34 33  1  0  0  0  0
 35 33  1  0  0  0  0
 35 27  2  0  0  0  0
 36 42  1  0  0  0  0
 36 38  1  0  0  0  0
 37 36  1  0  0  0  0
 38 40  1  0  0  0  0
 38 41  1  0  0  0  0
 39 38  1  0  0  0  0
 42 44  1  0  0  0  0
 42 43  1  0  0  0  0
 45 42  1  0  0  0  0
 46 47  1  0  0  0  0
 46 52  1  0  0  0  0
 46 35  1  0  0  0  0
 48 46  1  0  0  0  0
 49 48  1  0  0  0  0
 50 48  1  0  0  0  0
 51 48  1  0  0  0  0
 52 55  1  0  0  0  0
 53 52  1  0  0  0  0
 54 52  1  0  0  0  0
M  END
