1,2
 OpenBabel05122313053D

 54 57  0  0  0  0  0  0  0  0999 V2000
    1.2397    0.5415    0.4457 N   0  0  0  0  0  2  0  0  0  0  0  0
   -1.3045    0.4911    0.5302 N   0  0  0  0  0  2  0  0  0  0  0  0
    2.5233    0.3615    0.1927 C   0  0  0  0  0  3  0  0  0  0  0  0
    3.4177    1.5256   -0.0686 C   0  0  0  0  0  0  0  0  0  0  0  0
    3.3098    2.2232   -1.2910 C   0  0  0  0  0  0  0  0  0  0  0  0
    4.1524    3.3113   -1.5598 C   0  0  0  0  0  0  0  0  0  0  0  0
    5.1088    3.7120   -0.6124 C   0  0  0  0  0  0  0  0  0  0  0  0
    5.2275    3.0157    0.6013 C   0  0  0  0  0  0  0  0  0  0  0  0
    4.3898    1.9231    0.8717 C   0  0  0  0  0  0  0  0  0  0  0  0
    3.0286   -1.0029    0.0417 C   0  0  0  0  0  0  0  0  0  0  0  0
    4.2554   -1.2602   -0.6161 C   0  0  0  0  0  0  0  0  0  0  0  0
    4.6618   -2.5750   -0.8723 C   0  0  0  0  0  0  0  0  0  0  0  0
    3.8595   -3.6602   -0.4785 C   0  0  0  0  0  0  0  0  0  0  0  0
    2.6531   -3.4203    0.1995 C   0  0  0  0  0  0  0  0  0  0  0  0
    2.2468   -2.1093    0.4643 C   0  0  0  0  0  0  0  0  0  0  0  0
    0.6358    1.8802    0.4882 C   0  0  0  0  0  0  0  0  0  0  0  0
   -0.7547    1.7245    1.0915 C   0  0  0  0  0  0  0  0  0  0  0  0
   -2.5595    0.3026    0.1617 C   0  0  0  0  0  3  0  0  0  0  0  0
   -2.9470   -1.0703   -0.1802 C   0  0  0  0  0  0  0  0  0  0  0  0
   -2.1548   -2.1510    0.2894 C   0  0  0  0  0  0  0  0  0  0  0  0
   -2.4178   -3.4637   -0.1152 C   0  0  0  0  0  0  0  0  0  0  0  0
   -3.4852   -3.7275   -0.9881 C   0  0  0  0  0  0  0  0  0  0  0  0
   -4.2940   -2.6691   -1.4392 C   0  0  0  0  0  0  0  0  0  0  0  0
   -4.0325   -1.3524   -1.0406 C   0  0  0  0  0  0  0  0  0  0  0  0
   -3.5289    1.4189    0.0312 C   0  0  0  0  0  0  0  0  0  0  0  0
   -4.7609    1.3833    0.7204 C   0  0  0  0  0  0  0  0  0  0  0  0
   -5.6819    2.4310    0.5825 C   0  0  0  0  0  0  0  0  0  0  0  0
   -5.3909    3.5226   -0.2521 C   0  0  0  0  0  0  0  0  0  0  0  0
   -4.1759    3.5589   -0.9557 C   0  0  0  0  0  0  0  0  0  0  0  0
   -3.2516    2.5142   -0.8183 C   0  0  0  0  0  0  0  0  0  0  0  0
    2.5703    1.8845   -2.0336 H   0  0  0  0  0  0  0  0  0  0  0  0
    4.0667    3.8459   -2.5180 H   0  0  0  0  0  0  0  0  0  0  0  0
    5.7689    4.5669   -0.8236 H   0  0  0  0  0  0  0  0  0  0  0  0
    5.9798    3.3243    1.3430 H   0  0  0  0  0  0  0  0  0  0  0  0
    4.4811    1.3698    1.8187 H   0  0  0  0  0  0  0  0  0  0  0  0
    4.8740   -0.4159   -0.9538 H   0  0  0  0  0  0  0  0  0  0  0  0
    5.6127   -2.7564   -1.3960 H   0  0  0  0  0  0  0  0  0  0  0  0
    4.1810   -4.6914   -0.6883 H   0  0  0  0  0  0  0  0  0  0  0  0
    2.0303   -4.2601    0.5426 H   0  0  0  0  0  0  0  0  0  0  0  0
    1.3970   -1.9678    1.1760 H   0  0  0  0  0  0  0  0  0  0  0  0
    0.5570    2.2588   -0.5540 H   0  0  0  0  0  0  0  0  0  0  0  0
    1.2663    2.5902    1.0610 H   0  0  0  0  0  0  0  0  0  0  0  0
   -0.6774    1.5527    2.1879 H   0  0  0  0  0  0  0  0  0  0  0  0
   -1.3908    2.6105    0.9030 H   0  0  0  0  0  0  0  0  0  0  0  0
   -1.4298   -1.9948    1.1288 H   0  0  0  0  0  0  0  0  0  0  0  0
   -1.7910   -4.2846    0.2638 H   0  0  0  0  0  0  0  0  0  0  0  0
   -3.6931   -4.7583   -1.3119 H   0  0  0  0  0  0  0  0  0  0  0  0
   -5.1328   -2.8727   -2.1222 H   0  0  0  0  0  0  0  0  0  0  0  0
   -4.6492   -0.5259   -1.4228 H   0  0  0  0  0  0  0  0  0  0  0  0
   -4.9853    0.5272    1.3744 H   0  0  0  0  0  0  0  0  0  0  0  0
   -6.6344    2.3961    1.1328 H   0  0  0  0  0  0  0  0  0  0  0  0
   -6.1164    4.3429   -0.3612 H   0  0  0  0  0  0  0  0  0  0  0  0
   -3.9516    4.4020   -1.6266 H   0  0  0  0  0  0  0  0  0  0  0  0
   -2.3137    2.5203   -1.3949 H   0  0  0  0  0  0  0  0  0  0  0  0
  1 16  1  0  0  0  0
  2 17  1  0  0  0  0
  3  1  1  0  0  0  0
  4  3  1  0  0  0  0
  4  9  1  0  0  0  0
  5  4  2  0  0  0  0
  6  5  1  0  0  0  0
  6  7  2  0  0  0  0
  7  8  1  0  0  0  0
  8  9  2  0  0  0  0
  8 34  1  0  0  0  0
  9 35  1  0  0  0  0
 10  3  1  0  0  0  0
 10 15  1  0  0  0  0
 11 10  2  0  0  0  0
 12 11  1  0  0  0  0
 12 13  2  0  0  0  0
 13 14  1  0  0  0  0
 14 15  2  0  0  0  0
 14 39  1  0  0  0  0
 15 40  1  0  0  0  0
 16 42  1  0  0  0  0
 16 17  1  0  0  0  0
 17 43  1  0  0  0  0
 18  2  1  0  0  0  0
 19 18  1  0  0  0  0
 19 20  1  0  0  0  0
 20 45  1  0  0  0  0
 21 46  1  0  0  0  0
 21 20  2  0  0  0  0
 22 21  1  0  0  0  0
 23 24  1  0  0  0  0
 23 22  2  0  0  0  0
 24 19  2  0  0  0  0
 25 18  1  0  0  0  0
 25 26  1  0  0  0  0
 26 50  1  0  0  0  0
 27 26  2  0  0  0  0
 27 51  1  0  0  0  0
 28 27  1  0  0  0  0
 29 30  1  0  0  0  0
 29 28  2  0  0  0  0
 30 25  2  0  0  0  0
 31  5  1  0  0  0  0
 32  6  1  0  0  0  0
 33  7  1  0  0  0  0
 36 11  1  0  0  0  0
 37 12  1  0  0  0  0
 38 13  1  0  0  0  0
 41 16  1  0  0  0  0
 44 17  1  0  0  0  0
 47 22  1  0  0  0  0
 48 23  1  0  0  0  0
 49 24  1  0  0  0  0
 52 28  1  0  0  0  0
 53 29  1  0  0  0  0
 54 30  1  0  0  0  0
M  END
