3,4
 OpenBabel05122313053D

 44 48  0  0  1  0  0  0  0  0999 V2000
    1.5460   -1.1401    0.9683 N   0  0  0  0  0  0  0  0  0  0  0  0
    1.7929    1.5325    0.3991 N   0  0  0  0  0  0  0  0  0  0  0  0
   -1.8542   -1.0286    1.3433 N   0  0  0  0  0  2  0  0  0  0  0  0
   -1.7452    1.7347    0.2675 N   0  0  0  0  0  2  0  0  0  0  0  0
    4.5280   -1.4349   -1.0181 N   0  0  0  0  0  0  0  0  0  0  0  0
    5.2314    0.7928    0.7077 N   0  0  0  0  0  0  0  0  0  0  0  0
    0.5069   -0.3224    1.1612 C   0  0  0  0  0  0  0  0  0  0  0  0
    0.5934    1.0398    0.7391 C   0  0  0  0  0  0  0  0  0  0  0  0
    2.6791   -0.6806    0.4207 C   0  0  0  0  0  0  0  0  0  0  0  0
    2.8584    0.7301    0.2861 C   0  0  0  0  0  0  0  0  0  0  0  0
   -0.6250   -0.9426    1.9123 C   0  0  2  0  0  3  0  0  0  0  0  0
   -0.3487   -1.5049    3.1714 C   0  0  0  0  0  0  0  0  0  0  0  0
   -1.3666   -2.1575    3.8736 C   0  0  0  0  0  0  0  0  0  0  0  0
   -2.6359   -2.2356    3.2857 C   0  0  0  0  0  0  0  0  0  0  0  0
   -2.8385   -1.6636    2.0270 C   0  0  0  0  0  0  0  0  0  0  0  0
   -0.5078    2.0413    0.7457 C   0  0  1  0  0  3  0  0  0  0  0  0
   -0.2019    3.3333    1.2208 C   0  0  0  0  0  0  0  0  0  0  0  0
   -1.1865    4.3238    1.2284 C   0  0  0  0  0  0  0  0  0  0  0  0
   -2.4631    3.9951    0.7543 C   0  0  0  0  0  0  0  0  0  0  0  0
   -2.6981    2.7004    0.2849 C   0  0  0  0  0  0  0  0  0  0  0  0
    3.6285   -1.7051   -0.0457 C   0  0  0  0  0  0  0  0  0  0  0  0
    3.6391   -3.0440    0.3762 C   0  0  0  0  0  3  0  0  0  0  0  0
    4.4329   -3.9348   -0.0739 C   0  0  0  0  0  3  0  0  0  0  0  0
    5.3850   -3.7287   -1.0575 C   0  0  0  0  0  0  0  0  0  0  0  0
    5.3488   -2.3597   -1.4951 C   0  0  0  0  0  0  0  0  0  0  0  0
    4.1791    1.3847    0.1082 C   0  0  0  0  0  0  0  0  0  0  0  0
    4.2808    2.5966   -0.6060 C   0  0  0  0  0  0  0  0  0  0  0  0
    5.5414    3.1937   -0.7259 C   0  0  0  0  0  0  0  0  0  0  0  0
    6.6431    2.5730   -0.1193 C   0  0  0  0  0  0  0  0  0  0  0  0
    6.4281    1.3785    0.5920 C   0  0  0  0  0  0  0  0  0  0  0  0
    0.6718   -1.4307    3.5708 H   0  0  0  0  0  0  0  0  0  0  0  0
   -1.1690   -2.6040    4.8595 H   0  0  0  0  0  0  0  0  0  0  0  0
   -3.4730   -2.7418    3.7867 H   0  0  0  0  0  0  0  0  0  0  0  0
   -3.8204   -1.6715    1.5296 H   0  0  0  0  0  0  0  0  0  0  0  0
    0.8204    3.5263    1.5704 H   0  0  0  0  0  0  0  0  0  0  0  0
   -0.9602    5.3349    1.5987 H   0  0  0  0  0  0  0  0  0  0  0  0
   -3.2807    4.7295    0.7359 H   0  0  0  0  0  0  0  0  0  0  0  0
   -3.6881    2.3821   -0.0775 H   0  0  0  0  0  0  0  0  0  0  0  0
    6.0931   -4.4487   -1.4943 H   0  0  0  0  0  0  0  0  0  0  0  0
    6.0461   -2.0423   -2.2905 H   0  0  0  0  0  0  0  0  0  0  0  0
    3.3798    3.0378   -1.0541 H   0  0  0  0  0  0  0  0  0  0  0  0
    5.6635    4.1320   -1.2881 H   0  0  0  0  0  0  0  0  0  0  0  0
    7.6523    3.0058   -0.1877 H   0  0  0  0  0  0  0  0  0  0  0  0
    7.2706    0.8738    1.0981 H   0  0  0  0  0  0  0  0  0  0  0  0
  1  7  1  0  0  0  0
  2  8  1  0  0  0  0
  3 11  1  0  0  0  0
  3 15  1  0  0  0  0
  4 20  1  0  0  0  0
  4 16  1  0  0  0  0
  5 21  1  0  0  0  0
  8  7  2  0  0  0  0
  9  1  2  0  0  0  0
 10  2  2  0  0  0  0
 10  9  1  0  0  0  0
 11  7  1  6  0  0  0
 11 12  1  0  0  0  0
 12 31  1  0  0  0  0
 12 13  2  0  0  0  0
 13 32  1  0  0  0  0
 14 33  1  0  0  0  0
 14 13  1  0  0  0  0
 15 14  2  0  0  0  0
 16  8  1  6  0  0  0
 16 17  1  0  0  0  0
 17 18  2  0  0  0  0
 17 35  1  0  0  0  0
 18 36  1  0  0  0  0
 19 18  1  0  0  0  0
 20 19  2  0  0  0  0
 21 22  2  0  0  0  0
 21  9  1  0  0  0  0
 23 22  1  0  0  0  0
 24 23  2  0  0  0  0
 25 24  1  0  0  0  0
 25  5  2  0  0  0  0
 26 10  1  0  0  0  0
 26  6  2  0  0  0  0
 27 26  1  0  0  0  0
 28 27  2  0  0  0  0
 28 29  1  0  0  0  0
 29 30  2  0  0  0  0
 30  6  1  0  0  0  0
 30 44  1  0  0  0  0
 34 15  1  0  0  0  0
 37 19  1  0  0  0  0
 38 20  1  0  0  0  0
 39 24  1  0  0  0  0
 40 25  1  0  0  0  0
 41 27  1  0  0  0  0
 42 28  1  0  0  0  0
 43 29  1  0  0  0  0
M  END
