1,3
 OpenBabel05122313053D

 37 40  0  0  1  0  0  0  0  0999 V2000
   -1.3066    0.4943   -0.7608 N   0  0  0  0  0  2  0  0  0  0  0  0
    0.6119    1.6322   -1.0863 N   0  0  0  0  0  0  0  0  0  0  0  0
   -0.1210   -1.9042   -0.5963 N   0  0  0  0  0  2  0  0  0  0  0  0
   -1.5739    1.8358   -0.5931 C   0  0  0  0  0  0  0  0  0  0  0  0
   -2.7715    2.4879   -0.2455 C   0  0  0  0  0  0  0  0  0  0  0  0
   -2.7320    3.8778   -0.1167 C   0  0  0  0  0  0  0  0  0  0  0  0
   -1.5339    4.6074   -0.3273 C   0  0  0  0  0  0  0  0  0  0  0  0
   -0.3329    3.9737   -0.6675 C   0  0  0  0  0  0  0  0  0  0  0  0
   -0.3731    2.5759   -0.7947 C   0  0  0  0  0  0  0  0  0  0  0  0
    2.0480    1.8922   -1.0376 C   0  0  0  0  0  0  0  0  0  0  0  0
   -0.0053    0.3966   -1.0484 C   0  0  1  0  0  3  0  0  0  0  0  0
    0.6093   -0.9318   -1.1927 C   0  0  2  0  0  3  0  0  0  0  0  0
    0.2496   -3.1866   -0.6804 C   0  0  0  0  0  0  0  0  0  0  0  0
    1.4228   -3.5722   -1.3448 C   0  0  0  0  0  0  0  0  0  0  0  0
    2.2005   -2.5770   -1.9555 C   0  0  0  0  0  0  0  0  0  0  0  0
    1.7892   -1.2389   -1.8946 C   0  0  0  0  0  0  0  0  0  0  0  0
    2.7555    1.1270    0.0697 C   0  0  0  0  0  0  0  0  0  0  0  0
    4.1233    0.8230   -0.0666 C   0  0  0  0  0  0  0  0  0  0  0  0
    4.7965    0.1120    0.9381 C   0  0  0  0  0  0  0  0  0  0  0  0
    4.1033   -0.3157    2.0826 C   0  0  0  0  0  0  0  0  0  0  0  0
    2.7389   -0.0183    2.2194 C   0  0  0  0  0  0  0  0  0  0  0  0
    2.0683    0.7091    1.2250 C   0  0  0  0  0  0  0  0  0  0  0  0
   -3.6880    1.9082   -0.0686 H   0  0  0  0  0  0  0  0  0  0  0  0
   -3.6467    4.4225    0.1596 H   0  0  0  0  0  0  0  0  0  0  0  0
   -1.5468    5.7017   -0.2159 H   0  0  0  0  0  0  0  0  0  0  0  0
    0.5892    4.5523   -0.8221 H   0  0  0  0  0  0  0  0  0  0  0  0
    2.1612    2.9845   -0.8830 H   0  0  0  0  0  0  0  0  0  0  0  0
    2.5130    1.6774   -2.0228 H   0  0  0  0  0  0  0  0  0  0  0  0
   -0.4381   -3.9066   -0.2054 H   0  0  0  0  0  0  0  0  0  0  0  0
    1.7135   -4.6313   -1.3860 H   0  0  0  0  0  0  0  0  0  0  0  0
    3.1230   -2.8419   -2.4931 H   0  0  0  0  0  0  0  0  0  0  0  0
    2.3687   -0.4558   -2.3984 H   0  0  0  0  0  0  0  0  0  0  0  0
    4.6673    1.1368   -0.9729 H   0  0  0  0  0  0  0  0  0  0  0  0
    5.8654   -0.1219    0.8189 H   0  0  0  0  0  0  0  0  0  0  0  0
    4.6272   -0.8886    2.8626 H   0  0  0  0  0  0  0  0  0  0  0  0
    2.1651   -0.3605    3.0937 H   0  0  0  0  0  0  0  0  0  0  0  0
    0.9911    0.8993    1.3672 H   0  0  0  0  0  0  0  0  0  0  0  0
  1  4  1  0  0  0  0
  2 11  1  0  0  0  0
  2 10  1  0  0  0  0
  2  9  1  0  0  0  0
  4  5  1  0  0  0  0
  5  6  2  0  0  0  0
  5 23  1  0  0  0  0
  6 24  1  0  0  0  0
  7 25  1  0  0  0  0
  7  6  1  0  0  0  0
  8  7  2  0  0  0  0
  9  8  1  0  0  0  0
  9  4  2  0  0  0  0
 10 27  1  0  0  0  0
 10 17  1  0  0  0  0
 11  1  1  1  0  0  0
 12 16  1  6  0  0  0
 12 11  1  0  0  0  0
 12  3  1  0  0  0  0
 13  3  1  0  0  0  0
 13 29  1  0  0  0  0
 14 13  2  0  0  0  0
 15 16  2  0  0  0  0
 15 14  1  0  0  0  0
 17 22  1  0  0  0  0
 18 17  2  0  0  0  0
 18 19  1  0  0  0  0
 19 20  2  0  0  0  0
 20 21  1  0  0  0  0
 20 35  1  0  0  0  0
 21 36  1  0  0  0  0
 22 37  1  0  0  0  0
 22 21  2  0  0  0  0
 26  8  1  0  0  0  0
 28 10  1  0  0  0  0
 30 14  1  0  0  0  0
 31 15  1  0  0  0  0
 32 16  1  0  0  0  0
 33 18  1  0  0  0  0
 34 19  1  0  0  0  0
M  END
