3,4
 OpenBabel05122313053D

 15 15  0  0  0  0  0  0  0  0999 V2000
    1.1300    2.7457    0.0002 O   0  0  0  0  0  0  0  0  0  0  0  0
    1.9922    2.1976    0.0004 H   0  0  0  0  0  0  0  0  0  0  0  0
   -1.4178   -0.2185    0.0001 N   0  0  0  0  0  2  0  0  0  0  0  0
    0.1972    1.7883    0.0000 N   0  0  0  0  0  2  0  0  0  0  0  0
   -2.1863   -1.3285    0.0001 C   0  0  0  0  0  0  0  0  0  0  0  0
   -1.6226   -2.2763    0.0002 H   0  0  0  0  0  0  0  0  0  0  0  0
   -3.5820   -1.2500    0.0001 C   0  0  0  0  0  0  0  0  0  0  0  0
   -4.1719   -2.1770    0.0001 H   0  0  0  0  0  0  0  0  0  0  0  0
   -4.2006    0.0122   -0.0000 C   0  0  0  0  0  0  0  0  0  0  0  0
   -5.2971    0.0982   -0.0001 H   0  0  0  0  0  0  0  0  0  0  0  0
   -3.4050    1.1621   -0.0001 C   0  0  0  0  0  0  0  0  0  0  0  0
   -3.8504    2.1669   -0.0001 H   0  0  0  0  0  0  0  0  0  0  0  0
   -2.0034    1.0322   -0.0000 C   0  0  0  0  0  0  0  0  0  0  0  0
   -1.0740    2.1383   -0.0000 C   0  0  0  0  0  0  0  0  0  0  0  0
   -1.3697    3.1968    0.0000 H   0  0  0  0  0  0  0  0  0  0  0  0
  1  2  1  0  0  0  0
  3  5  1  0  0  0  0
  4  1  1  0  0  0  0
  5  6  1  0  0  0  0
  7  5  2  0  0  0  0
  8  7  1  0  0  0  0
  9  7  1  0  0  0  0
 10  9  1  0  0  0  0
 11  9  2  0  0  0  0
 11 13  1  0  0  0  0
 12 11  1  0  0  0  0
 13  3  1  0  0  0  0
 14 13  2  0  0  0  0
 14  4  1  0  0  0  0
 14 15  1  0  0  0  0
M  END
