3,4
 OpenBabel05122313053D

 73 74  0  0  1  0  0  0  0  0999 V2000
    1.4083    1.1782    1.7496 O   0  0  0  0  0  0  0  0  0  0  0  0
   -3.7134   -0.8551    0.1187 C   0  0  0  0  0  0  0  0  0  0  0  0
   -2.7649    0.2109    0.0832 N   0  0  0  0  0  2  0  0  0  0  0  0
   -0.8532    1.8111    0.0386 N   0  0  0  0  0  2  0  0  0  0  0  0
    2.6656    2.1451    0.0737 N   0  0  0  0  0  0  0  0  0  0  0  0
    2.5476    2.4208   -0.9052 H   0  0  0  0  0  0  0  0  0  0  0  0
   -3.9297   -0.7350   -2.4399 C   0  0  0  0  0  0  0  0  0  0  0  0
   -3.3204    0.1766   -2.2719 H   0  0  0  0  0  0  0  0  0  0  0  0
   -5.2830   -2.3217   -0.9777 C   0  0  0  0  0  0  0  0  0  0  0  0
   -5.7827   -2.6831   -1.8892 H   0  0  0  0  0  0  0  0  0  0  0  0
   -4.3384   -1.2843   -1.0787 C   0  0  0  0  0  0  0  0  0  0  0  0
   -2.1901    3.8229   -0.1288 C   0  0  0  0  0  0  0  0  0  0  0  0
   -3.1795    4.2873   -0.2375 H   0  0  0  0  0  0  0  0  0  0  0  0
   -3.9575   -1.4723    1.3706 C   0  0  0  0  0  0  0  0  0  0  0  0
   -3.1729    1.4659   -0.0349 C   0  0  2  0  0  3  0  0  0  0  0  0
    1.5009    1.8433    0.7207 C   0  0  0  0  0  0  0  0  0  0  0  0
    0.2618    2.5581    0.2139 C   0  0  2  0  0  3  0  0  0  0  0  0
   -5.5846   -2.9118    0.2564 C   0  0  0  0  0  0  0  0  0  0  0  0
   -6.3318   -3.7180    0.3107 H   0  0  0  0  0  0  0  0  0  0  0  0
    0.2055    3.9603    0.1525 C   0  0  0  0  0  0  0  0  0  0  0  0
    1.1340    4.5319    0.2912 H   0  0  0  0  0  0  0  0  0  0  0  0
   -3.2091   -1.0126    2.6130 C   0  0  0  0  0  0  0  0  0  0  0  0
   -2.3153   -0.4610    2.2539 H   0  0  0  0  0  0  0  0  0  0  0  0
   -1.0289    4.5994   -0.0494 C   0  0  0  0  0  0  0  0  0  0  0  0
   -1.0867    5.6960   -0.1096 H   0  0  0  0  0  0  0  0  0  0  0  0
   -2.0754    2.4223   -0.0619 C   0  0  0  0  0  0  0  0  0  0  0  0
    3.8756    1.3917    0.3777 C   0  0  0  0  0  0  0  0  0  0  0  0
    3.8108    0.3937   -0.1131 H   0  0  0  0  0  0  0  0  0  0  0  0
    3.8728    1.2032    1.4699 H   0  0  0  0  0  0  0  0  0  0  0  0
   -4.6039    1.8953   -0.1143 C   0  0  0  0  0  0  0  0  0  0  0  0
   -5.2814    1.0701    0.1687 H   0  0  0  0  0  0  0  0  0  0  0  0
   -4.8615    2.2080   -1.1492 H   0  0  0  0  0  0  0  0  0  0  0  0
   -4.7917    2.7631    0.5491 H   0  0  0  0  0  0  0  0  0  0  0  0
   -2.6951   -2.1870    3.4545 C   0  0  0  0  0  0  0  0  0  0  0  0
   -2.0673   -2.8528    2.8308 H   0  0  0  0  0  0  0  0  0  0  0  0
   -3.5213   -2.7837    3.8940 H   0  0  0  0  0  0  0  0  0  0  0  0
   -2.0757   -1.8128    4.2946 H   0  0  0  0  0  0  0  0  0  0  0  0
   -4.9191   -2.4952    1.4170 C   0  0  0  0  0  0  0  0  0  0  0  0
   -5.1396   -2.9840    2.3776 H   0  0  0  0  0  0  0  0  0  0  0  0
   -3.0149   -1.7470   -3.1566 C   0  0  0  0  0  0  0  0  0  0  0  0
   -2.1401   -1.9992   -2.5253 H   0  0  0  0  0  0  0  0  0  0  0  0
   -2.6509   -1.3305   -4.1183 H   0  0  0  0  0  0  0  0  0  0  0  0
   -3.5637   -2.6869   -3.3738 H   0  0  0  0  0  0  0  0  0  0  0  0
   -5.1319   -0.3349   -3.3080 C   0  0  0  0  0  0  0  0  0  0  0  0
   -5.7946    0.3876   -2.7887 H   0  0  0  0  0  0  0  0  0  0  0  0
   -5.7494   -1.2146   -3.5832 H   0  0  0  0  0  0  0  0  0  0  0  0
   -4.7885    0.1300   -4.2544 H   0  0  0  0  0  0  0  0  0  0  0  0
   -4.0648   -0.0361    3.4389 C   0  0  0  0  0  0  0  0  0  0  0  0
   -4.3816    0.8401    2.8364 H   0  0  0  0  0  0  0  0  0  0  0  0
   -3.4984    0.3406    4.3152 H   0  0  0  0  0  0  0  0  0  0  0  0
   -4.9847   -0.5320    3.8136 H   0  0  0  0  0  0  0  0  0  0  0  0
    5.1335    2.1465   -0.0489 C   0  0  0  0  0  0  0  0  0  0  0  0
    5.1209    3.1490    0.4302 H   0  0  0  0  0  0  0  0  0  0  0  0
    5.1004    2.3276   -1.1481 H   0  0  0  0  0  0  0  0  0  0  0  0
    6.4380    1.4204    0.3026 C   0  0  0  0  0  0  0  0  0  0  0  0
    7.2923    2.0980    0.0853 H   0  0  0  0  0  0  0  0  0  0  0  0
    6.4709    1.2402    1.4009 H   0  0  0  0  0  0  0  0  0  0  0  0
    6.6585    0.0948   -0.4350 C   0  0  0  0  0  0  0  0  0  0  0  0
    6.5904    0.2708   -1.5329 H   0  0  0  0  0  0  0  0  0  0  0  0
    5.8379   -0.6167   -0.1963 H   0  0  0  0  0  0  0  0  0  0  0  0
    7.9995   -0.5678   -0.1085 C   0  0  0  0  0  0  0  0  0  0  0  0
    8.8286    0.1342   -0.3565 H   0  0  0  0  0  0  0  0  0  0  0  0
    8.0626   -0.7282    0.9905 H   0  0  0  0  0  0  0  0  0  0  0  0
    9.5800   -2.5590   -0.5748 C   0  0  0  0  0  0  0  0  0  0  0  0
    9.6869   -3.4343   -1.2513 H   0  0  0  0  0  0  0  0  0  0  0  0
   10.3934   -1.8557   -0.8637 H   0  0  0  0  0  0  0  0  0  0  0  0
    8.2229   -1.8932   -0.8439 C   0  0  0  0  0  0  0  0  0  0  0  0
    8.1165   -1.7169   -1.9372 H   0  0  0  0  0  0  0  0  0  0  0  0
    7.4066   -2.6016   -0.5747 H   0  0  0  0  0  0  0  0  0  0  0  0
    9.7887   -3.0155    0.8714 C   0  0  0  0  0  0  0  0  0  0  0  0
   10.7611   -3.5334    0.9970 H   0  0  0  0  0  0  0  0  0  0  0  0
    8.9915   -3.7209    1.1879 H   0  0  0  0  0  0  0  0  0  0  0  0
    9.7768   -2.1645    1.5828 H   0  0  0  0  0  0  0  0  0  0  0  0
  2 14  1  0  0  0  0
  3  2  1  0  0  0  0
  4 17  1  0  0  0  0
  5 27  1  0  0  0  0
  5 16  1  0  0  0  0
  6  5  1  0  0  0  0
  7  8  1  0  0  0  0
  7 11  1  0  0  0  0
  9 18  2  0  0  0  0
 10  9  1  0  0  0  0
 11  9  1  0  0  0  0
 11  2  2  0  0  0  0
 12 26  2  0  0  0  0
 12 24  1  0  0  0  0
 13 12  1  0  0  0  0
 14 38  2  0  0  0  0
 14 22  1  0  0  0  0
 15  3  1  1  0  0  0
 16  1  2  0  0  0  0
 17 16  1  1  0  0  0
 18 19  1  0  0  0  0
 18 38  1  0  0  0  0
 20 17  1  0  0  0  0
 20 21  1  0  0  0  0
 22 48  1  0  0  0  0
 22 34  1  0  0  0  0
 23 22  1  0  0  0  0
 24 20  2  0  0  0  0
 25 24  1  0  0  0  0
 26 15  1  0  0  0  0
 26  4  1  0  0  0  0
 27 29  1  0  0  0  0
 28 27  1  0  0  0  0
 30 15  1  0  0  0  0
 30 31  1  0  0  0  0
 30 33  1  0  0  0  0
 32 30  1  0  0  0  0
 34 36  1  0  0  0  0
 34 37  1  0  0  0  0
 35 34  1  0  0  0  0
 38 39  1  0  0  0  0
 40 41  1  0  0  0  0
 40  7  1  0  0  0  0
 42 40  1  0  0  0  0
 43 40  1  0  0  0  0
 44 45  1  0  0  0  0
 44  7  1  0  0  0  0
 46 44  1  0  0  0  0
 47 44  1  0  0  0  0
 48 51  1  0  0  0  0
 48 50  1  0  0  0  0
 49 48  1  0  0  0  0
 52 55  1  0  0  0  0
 52 27  1  0  0  0  0
 52 53  1  0  0  0  0
 54 52  1  0  0  0  0
 55 57  1  0  0  0  0
 56 55  1  0  0  0  0
 58 60  1  0  0  0  0
 58 61  1  0  0  0  0
 58 55  1  0  0  0  0
 59 58  1  0  0  0  0
 61 63  1  0  0  0  0
 62 61  1  0  0  0  0
 64 70  1  0  0  0  0
 65 64  1  0  0  0  0
 66 64  1  0  0  0  0
 67 64  1  0  0  0  0
 67 69  1  0  0  0  0
 67 61  1  0  0  0  0
 68 67  1  0  0  0  0
 70 71  1  0  0  0  0
 70 72  1  0  0  0  0
 70 73  1  0  0  0  0
M  END
