4,6
 OpenBabel05122313053D

 61 62  0  0  1  0  0  0  0  0999 V2000
   -2.8478    0.1641    0.2235 C   0  0  0  0  0  0  0  0  0  0  0  0
   -3.2682   -1.6905   -1.5062 C   0  0  0  0  0  0  0  0  0  0  0  0
   -2.2989   -2.0460   -1.1006 H   0  0  0  0  0  0  0  0  0  0  0  0
    0.8863   -0.9480    0.5676 N   0  0  0  0  0  2  0  0  0  0  0  0
    2.7599    1.2601    0.5741 O   0  0  0  0  0  0  0  0  0  0  0  0
   -1.5278   -0.3366    0.4323 N   0  0  0  0  0  2  0  0  0  0  0  0
    2.2312   -1.0428    0.6898 C   0  0  2  0  0  3  0  0  0  0  0  0
    4.1786   -0.1871   -0.5172 N   0  0  0  0  0  0  0  0  0  0  0  0
   -1.3282   -1.3964    1.2020 C   0  0  1  0  0  3  0  0  0  0  0  0
    0.0745   -1.7747    1.2989 C   0  0  0  0  0  0  0  0  0  0  0  0
    2.8136   -2.0689    1.4519 C   0  0  0  0  0  0  0  0  0  0  0  0
    3.9093   -2.1154    1.5263 H   0  0  0  0  0  0  0  0  0  0  0  0
    3.0553    0.1296    0.1920 C   0  0  0  0  0  0  0  0  0  0  0  0
   -3.7288   -0.5118   -0.6575 C   0  0  0  0  0  0  0  0  0  0  0  0
    0.6044   -2.8216    2.0757 C   0  0  0  0  0  0  0  0  0  0  0  0
   -0.0699   -3.4883    2.6300 H   0  0  0  0  0  0  0  0  0  0  0  0
   -3.2062    1.3617    0.8907 C   0  0  0  0  0  0  0  0  0  0  0  0
   -4.5169    1.8369    0.7192 C   0  0  0  0  0  0  0  0  0  0  0  0
   -4.8279    2.7573    1.2353 H   0  0  0  0  0  0  0  0  0  0  0  0
    1.9925   -2.9862    2.1287 C   0  0  0  0  0  0  0  0  0  0  0  0
    2.4351   -3.8007    2.7205 H   0  0  0  0  0  0  0  0  0  0  0  0
   -5.4234    1.1662   -0.1126 C   0  0  0  0  0  0  0  0  0  0  0  0
   -6.4451    1.5555   -0.2389 H   0  0  0  0  0  0  0  0  0  0  0  0
    4.9622    0.8860   -1.1301 C   0  0  0  0  0  0  0  0  0  0  0  0
    4.2596    1.6245   -1.5731 H   0  0  0  0  0  0  0  0  0  0  0  0
    5.5373    0.4351   -1.9627 H   0  0  0  0  0  0  0  0  0  0  0  0
   -2.4042   -2.1394    1.9290 C   0  0  0  0  0  0  0  0  0  0  0  0
   -3.3471   -1.5642    1.9359 H   0  0  0  0  0  0  0  0  0  0  0  0
   -2.1000   -2.3501    2.9738 H   0  0  0  0  0  0  0  0  0  0  0  0
   -2.6049   -3.1166    1.4392 H   0  0  0  0  0  0  0  0  0  0  0  0
   -2.1979    2.0797    1.7753 C   0  0  0  0  0  0  0  0  0  0  0  0
   -1.1969    1.7027    1.4787 H   0  0  0  0  0  0  0  0  0  0  0  0
   -5.0249    0.0148   -0.8037 C   0  0  0  0  0  0  0  0  0  0  0  0
   -5.7322   -0.4822   -1.4846 H   0  0  0  0  0  0  0  0  0  0  0  0
    5.8961    1.5891   -0.1369 C   0  0  0  0  0  0  0  0  0  0  0  0
    5.2643    2.0976    0.6196 H   0  0  0  0  0  0  0  0  0  0  0  0
    6.4322    2.3917   -0.6898 H   0  0  0  0  0  0  0  0  0  0  0  0
   -2.1873    3.5950    1.5398 C   0  0  0  0  0  0  0  0  0  0  0  0
   -2.0057    3.8097    0.4687 H   0  0  0  0  0  0  0  0  0  0  0  0
   -1.3768    4.0678    2.1307 H   0  0  0  0  0  0  0  0  0  0  0  0
   -3.1405    4.0752    1.8439 H   0  0  0  0  0  0  0  0  0  0  0  0
    7.9094   -0.0049   -0.3784 C   0  0  0  0  0  0  0  0  0  0  0  0
    8.6494   -0.6101    0.1833 H   0  0  0  0  0  0  0  0  0  0  0  0
    8.4740    0.7439   -0.9732 H   0  0  0  0  0  0  0  0  0  0  0  0
    7.4122   -0.6878   -1.0986 H   0  0  0  0  0  0  0  0  0  0  0  0
    6.9073    0.6705    0.5607 C   0  0  0  0  0  0  0  0  0  0  0  0
    7.4579    1.2653    1.3204 H   0  0  0  0  0  0  0  0  0  0  0  0
    6.3512   -0.1054    1.1319 H   0  0  0  0  0  0  0  0  0  0  0  0
   -2.4156    1.7229    3.2563 C   0  0  0  0  0  0  0  0  0  0  0  0
   -2.3620    0.6275    3.4250 H   0  0  0  0  0  0  0  0  0  0  0  0
   -3.4125    2.0645    3.6056 H   0  0  0  0  0  0  0  0  0  0  0  0
   -1.6465    2.2034    3.8952 H   0  0  0  0  0  0  0  0  0  0  0  0
   -4.2474   -2.8731   -1.4682 C   0  0  0  0  0  0  0  0  0  0  0  0
   -4.4523   -3.2070   -0.4303 H   0  0  0  0  0  0  0  0  0  0  0  0
   -3.8364   -3.7343   -2.0333 H   0  0  0  0  0  0  0  0  0  0  0  0
   -5.2209   -2.6143   -1.9331 H   0  0  0  0  0  0  0  0  0  0  0  0
   -2.9932   -1.2184   -2.9471 C   0  0  0  0  0  0  0  0  0  0  0  0
   -3.9270   -0.8592   -3.4272 H   0  0  0  0  0  0  0  0  0  0  0  0
   -2.5888   -2.0504   -3.5595 H   0  0  0  0  0  0  0  0  0  0  0  0
   -2.2629   -0.3853   -2.9535 H   0  0  0  0  0  0  0  0  0  0  0  0
    4.1428   -1.0810   -1.0101 H   0  0  0  0  0  0  0  0  0  0  0  0
  1  6  1  0  0  0  0
  1 17  1  0  0  0  0
  2 53  1  0  0  0  0
  2  3  1  0  0  0  0
  2 14  1  0  0  0  0
  4  7  1  0  0  0  0
  4 10  1  0  0  0  0
  7 13  1  1  0  0  0
  7 11  1  0  0  0  0
  8 13  1  0  0  0  0
  9  6  1  1  0  0  0
  9 10  1  0  0  0  0
  9 27  1  0  0  0  0
 10 15  2  0  0  0  0
 11 12  1  0  0  0  0
 11 20  2  0  0  0  0
 13  5  2  0  0  0  0
 14  1  2  0  0  0  0
 15 20  1  0  0  0  0
 15 16  1  0  0  0  0
 17 31  1  0  0  0  0
 18 17  2  0  0  0  0
 18 19  1  0  0  0  0
 20 21  1  0  0  0  0
 22 18  1  0  0  0  0
 23 22  1  0  0  0  0
 24  8  1  0  0  0  0
 24 35  1  0  0  0  0
 25 24  1  0  0  0  0
 26 24  1  0  0  0  0
 27 28  1  0  0  0  0
 27 29  1  0  0  0  0
 30 27  1  0  0  0  0
 31 49  1  0  0  0  0
 32 31  1  0  0  0  0
 33 14  1  0  0  0  0
 33 22  2  0  0  0  0
 34 33  1  0  0  0  0
 35 46  1  0  0  0  0
 35 36  1  0  0  0  0
 37 35  1  0  0  0  0
 38 31  1  0  0  0  0
 38 41  1  0  0  0  0
 38 40  1  0  0  0  0
 39 38  1  0  0  0  0
 42 43  1  0  0  0  0
 42 46  1  0  0  0  0
 44 42  1  0  0  0  0
 45 42  1  0  0  0  0
 46 48  1  0  0  0  0
 46 47  1  0  0  0  0
 49 50  1  0  0  0  0
 49 51  1  0  0  0  0
 49 52  1  0  0  0  0
 53 54  1  0  0  0  0
 55 53  1  0  0  0  0
 56 53  1  0  0  0  0
 57  2  1  0  0  0  0
 58 57  1  0  0  0  0
 59 57  1  0  0  0  0
 60 57  1  0  0  0  0
 61  8  1  0  0  0  0
M  END
