1,2
 OpenBabel05122313053D

 55 54  0  0  0  0  0  0  0  0999 V2000
    1.6555    1.2022    0.3244 N   0  0  0  0  0  2  0  0  0  0  0  0
    2.0552   -1.2348   -0.2413 N   0  0  0  0  0  2  0  0  0  0  0  0
    2.8753    0.1577    0.0522 P   0  0  0  0  0  4  0  0  0  0  0  0
    1.1530    2.8330    0.6642 Si  0  0  0  0  0  0  0  0  0  0  0  0
    2.1532   -2.9156   -0.7133 Si  0  0  0  0  0  0  0  0  0  0  0  0
    2.4996    3.9682    1.3801 C   0  0  0  0  0  0  0  0  0  0  0  0
    0.4869    3.6253   -0.9272 C   0  0  0  0  0  0  0  0  0  0  0  0
   -0.2216    2.7820    1.9655 C   0  0  0  0  0  0  0  0  0  0  0  0
    1.8177   -4.0399    0.7737 C   0  0  0  0  0  0  0  0  0  0  0  0
    0.8630   -3.2377   -2.0633 C   0  0  0  0  0  0  0  0  0  0  0  0
    3.8247   -3.4309   -1.4577 C   0  0  0  0  0  0  0  0  0  0  0  0
    3.8827    0.7027   -1.4683 C   0  0  0  0  0  0  0  0  0  0  0  0
    2.9605    0.4360   -2.6735 C   0  0  0  0  0  0  0  0  0  0  0  0
    4.1730    2.2112   -1.3954 C   0  0  0  0  0  0  0  0  0  0  0  0
    5.2016   -0.0668   -1.6344 C   0  0  0  0  0  0  0  0  0  0  0  0
    3.9489   -0.0621    1.6045 C   0  0  0  0  0  0  0  0  0  0  0  0
    4.8768    1.1377    1.8479 C   0  0  0  0  0  0  0  0  0  0  0  0
    4.7689   -1.3604    1.5261 C   0  0  0  0  0  0  0  0  0  0  0  0
    2.9403   -0.1854    2.7635 C   0  0  0  0  0  0  0  0  0  0  0  0
    2.8223    3.6296    2.3859 H   0  0  0  0  0  0  0  0  0  0  0  0
    2.0743    4.9875    1.4979 H   0  0  0  0  0  0  0  0  0  0  0  0
    3.3964    4.0532    0.7362 H   0  0  0  0  0  0  0  0  0  0  0  0
    1.3025    3.8999   -1.6273 H   0  0  0  0  0  0  0  0  0  0  0  0
   -0.1022    4.5426   -0.7189 H   0  0  0  0  0  0  0  0  0  0  0  0
   -0.1660    2.8946   -1.4456 H   0  0  0  0  0  0  0  0  0  0  0  0
   -1.0907    2.1977    1.6074 H   0  0  0  0  0  0  0  0  0  0  0  0
   -0.5705    3.8053    2.2164 H   0  0  0  0  0  0  0  0  0  0  0  0
    0.1486    2.3105    2.8995 H   0  0  0  0  0  0  0  0  0  0  0  0
    2.6033   -3.9320    1.5499 H   0  0  0  0  0  0  0  0  0  0  0  0
    1.7855   -5.1071    0.4701 H   0  0  0  0  0  0  0  0  0  0  0  0
    0.8451   -3.7764    1.2335 H   0  0  0  0  0  0  0  0  0  0  0  0
   -0.1669   -3.0576   -1.6983 H   0  0  0  0  0  0  0  0  0  0  0  0
    0.9191   -4.2870   -2.4209 H   0  0  0  0  0  0  0  0  0  0  0  0
    1.0388   -2.5710   -2.9327 H   0  0  0  0  0  0  0  0  0  0  0  0
    4.0270   -2.9240   -2.4226 H   0  0  0  0  0  0  0  0  0  0  0  0
    3.7848   -4.5222   -1.6602 H   0  0  0  0  0  0  0  0  0  0  0  0
    4.6810   -3.2507   -0.7788 H   0  0  0  0  0  0  0  0  0  0  0  0
    3.4298    0.8461   -3.5923 H   0  0  0  0  0  0  0  0  0  0  0  0
    1.9767    0.9281   -2.5369 H   0  0  0  0  0  0  0  0  0  0  0  0
    2.7821   -0.6453   -2.8236 H   0  0  0  0  0  0  0  0  0  0  0  0
    4.8023    2.4851   -0.5281 H   0  0  0  0  0  0  0  0  0  0  0  0
    3.2383    2.7996   -1.3488 H   0  0  0  0  0  0  0  0  0  0  0  0
    4.7180    2.5189   -2.3131 H   0  0  0  0  0  0  0  0  0  0  0  0
    5.6631    0.2081   -2.6071 H   0  0  0  0  0  0  0  0  0  0  0  0
    5.0529   -1.1614   -1.6371 H   0  0  0  0  0  0  0  0  0  0  0  0
    5.9351    0.1861   -0.8439 H   0  0  0  0  0  0  0  0  0  0  0  0
    5.3657    1.0285    2.8395 H   0  0  0  0  0  0  0  0  0  0  0  0
    4.3235    2.0952    1.8546 H   0  0  0  0  0  0  0  0  0  0  0  0
    5.6841    1.2049    1.0924 H   0  0  0  0  0  0  0  0  0  0  0  0
    5.3223   -1.4984    2.4793 H   0  0  0  0  0  0  0  0  0  0  0  0
    5.5142   -1.3509    0.7093 H   0  0  0  0  0  0  0  0  0  0  0  0
    4.1129   -2.2410    1.3920 H   0  0  0  0  0  0  0  0  0  0  0  0
    2.2235   -1.0104    2.5782 H   0  0  0  0  0  0  0  0  0  0  0  0
    2.3595    0.7464    2.8996 H   0  0  0  0  0  0  0  0  0  0  0  0
    3.4877   -0.4035    3.7044 H   0  0  0  0  0  0  0  0  0  0  0  0
  1  4  1  0  0  0  0
  2  3  1  0  0  0  0
  3  1  1  0  0  0  0
  3 16  1  0  0  0  0
  4  6  1  0  0  0  0
  4  8  1  0  0  0  0
  5  2  1  0  0  0  0
  5  9  1  0  0  0  0
  6 21  1  0  0  0  0
  6 20  1  0  0  0  0
  7 24  1  0  0  0  0
  7  4  1  0  0  0  0
  8 27  1  0  0  0  0
  8 28  1  0  0  0  0
  9 31  1  0  0  0  0
  9 29  1  0  0  0  0
 10 32  1  0  0  0  0
 10  5  1  0  0  0  0
 11 37  1  0  0  0  0
 11  5  1  0  0  0  0
 12 14  1  0  0  0  0
 12  3  1  0  0  0  0
 13 39  1  0  0  0  0
 13 12  1  0  0  0  0
 14 42  1  0  0  0  0
 14 41  1  0  0  0  0
 15 12  1  0  0  0  0
 15 46  1  0  0  0  0
 16 17  1  0  0  0  0
 16 19  1  0  0  0  0
 17 48  1  0  0  0  0
 17 47  1  0  0  0  0
 18 16  1  0  0  0  0
 18 50  1  0  0  0  0
 19 54  1  0  0  0  0
 19 55  1  0  0  0  0
 22  6  1  0  0  0  0
 23  7  1  0  0  0  0
 25  7  1  0  0  0  0
 26  8  1  0  0  0  0
 30  9  1  0  0  0  0
 33 10  1  0  0  0  0
 34 10  1  0  0  0  0
 35 11  1  0  0  0  0
 36 11  1  0  0  0  0
 38 13  1  0  0  0  0
 40 13  1  0  0  0  0
 43 14  1  0  0  0  0
 44 15  1  0  0  0  0
 45 15  1  0  0  0  0
 49 17  1  0  0  0  0
 51 18  1  0  0  0  0
 52 18  1  0  0  0  0
 53 19  1  0  0  0  0
M  END
