2,5
 OpenBabel05122313053D

 28 29  0  0  1  0  0  0  0  0999 V2000
    3.5192    1.1776    0.3409 S   0  0  0  0  0  0  0  0  0  0  0  0
   -1.2823    1.6554   -0.4085 N   0  0  0  0  0  2  0  0  0  0  0  0
    0.0508    3.4383   -0.6391 N   0  0  0  0  0  0  0  0  0  0  0  0
    1.0620    1.2469   -0.6182 N   0  0  0  0  0  2  0  0  0  0  0  0
    0.7346   -0.0048   -0.4945 N   0  0  0  0  0  2  0  0  0  0  0  0
    1.8266   -0.8841   -0.5280 C   0  0  0  0  0  0  0  0  0  0  0  0
    3.1577   -0.4819   -0.1639 C   0  0  0  0  0  0  0  0  0  0  0  0
    4.1655   -1.4739   -0.1838 C   0  0  0  0  0  0  0  0  0  0  0  0
    5.1937   -1.2089    0.0921 H   0  0  0  0  0  0  0  0  0  0  0  0
    3.8931   -2.7914   -0.5632 C   0  0  0  0  0  0  0  0  0  0  0  0
    4.7106   -3.5279   -0.5712 H   0  0  0  0  0  0  0  0  0  0  0  0
    2.5922   -3.1711   -0.9391 C   0  0  0  0  0  0  0  0  0  0  0  0
    2.3743   -4.2025   -1.2506 H   0  0  0  0  0  0  0  0  0  0  0  0
    1.5745   -2.2223   -0.9094 C   0  0  0  0  0  0  0  0  0  0  0  0
    0.5502   -2.4820   -1.2059 H   0  0  0  0  0  0  0  0  0  0  0  0
   -0.0049    2.0717   -0.5441 C   0  0  2  0  0  3  0  0  0  0  0  0
   -2.0627    2.7766   -0.4027 C   0  0  0  0  0  0  0  0  0  0  0  0
   -3.1504    2.7268   -0.2887 H   0  0  0  0  0  0  0  0  0  0  0  0
   -1.2454    3.8954   -0.5443 C   0  0  0  0  0  0  0  0  0  0  0  0
   -1.4857    4.9624   -0.5814 H   0  0  0  0  0  0  0  0  0  0  0  0
    1.2697    4.2221   -0.7492 C   0  0  0  0  0  0  0  0  0  0  0  0
    2.1026    3.5355   -0.9877 H   0  0  0  0  0  0  0  0  0  0  0  0
    1.4906    4.7328    0.2094 H   0  0  0  0  0  0  0  0  0  0  0  0
    1.1657    4.9758   -1.5530 H   0  0  0  0  0  0  0  0  0  0  0  0
    5.0679    0.9540    1.2821 C   0  0  0  0  0  0  0  0  0  0  0  0
    5.2395    1.9316    1.7723 H   0  0  0  0  0  0  0  0  0  0  0  0
    5.9357    0.7325    0.6297 H   0  0  0  0  0  0  0  0  0  0  0  0
    4.9607    0.1732    2.0597 H   0  0  0  0  0  0  0  0  0  0  0  0
  1 25  1  0  0  0  0
  2 17  1  0  0  0  0
  3 19  1  0  0  0  0
  3 16  1  0  0  0  0
  4  5  1  0  0  0  0
  6  5  1  0  0  0  0
  6  7  1  0  0  0  0
  7  1  1  0  0  0  0
  8  7  2  0  0  0  0
  8  9  1  0  0  0  0
 10  8  1  0  0  0  0
 11 10  1  0  0  0  0
 12 14  1  0  0  0  0
 12 10  2  0  0  0  0
 13 12  1  0  0  0  0
 14  6  2  0  0  0  0
 15 14  1  0  0  0  0
 16  4  1  6  0  0  0
 16  2  1  0  0  0  0
 17 18  1  0  0  0  0
 19 17  2  0  0  0  0
 20 19  1  0  0  0  0
 21  3  1  0  0  0  0
 21 23  1  0  0  0  0
 22 21  1  0  0  0  0
 24 21  1  0  0  0  0
 25 26  1  0  0  0  0
 25 28  1  0  0  0  0
 27 25  1  0  0  0  0
M  END
