1,2
 OpenBabel05122313053D

 29 30  0  0  0  0  0  0  0  0999 V2000
    0.9247    1.3662   -0.0133 N   0  0  0  0  0  2  0  0  0  0  0  0
   -0.8208   -0.3431    1.2127 N   0  0  0  0  0  0  0  0  0  0  0  0
    1.5731    2.1397   -0.9110 C   0  0  0  0  0  3  0  0  0  0  0  0
    2.2462    1.5875   -1.5889 H   0  0  0  0  0  0  0  0  0  0  0  0
    1.4030    3.5279   -0.9323 C   0  0  0  0  0  0  0  0  0  0  0  0
    1.9483    4.1262   -1.6760 H   0  0  0  0  0  0  0  0  0  0  0  0
    0.5382    4.1274   -0.0057 C   0  0  0  0  0  0  0  0  0  0  0  0
    0.3833    5.2165   -0.0035 H   0  0  0  0  0  0  0  0  0  0  0  0
   -0.1339    3.3138    0.9188 C   0  0  0  0  0  0  0  0  0  0  0  0
   -0.8233    3.7432    1.6603 H   0  0  0  0  0  0  0  0  0  0  0  0
    0.0826    1.9317    0.8920 C   0  0  0  0  0  0  0  0  0  0  0  0
   -0.5246    0.9589    1.8661 C   0  0  0  0  0  0  0  0  0  0  0  0
   -1.4198    1.3814    2.3728 H   0  0  0  0  0  0  0  0  0  0  0  0
    0.2259    0.7402    2.6536 H   0  0  0  0  0  0  0  0  0  0  0  0
   -1.0907   -1.3752    2.2473 C   0  0  0  0  0  0  0  0  0  0  0  0
   -2.0428   -1.1451    2.7724 H   0  0  0  0  0  0  0  0  0  0  0  0
   -0.2487   -1.3888    2.9635 H   0  0  0  0  0  0  0  0  0  0  0  0
   -1.1324   -2.3675    1.7668 H   0  0  0  0  0  0  0  0  0  0  0  0
   -1.9054   -0.2947    0.2232 C   0  0  0  0  0  0  0  0  0  0  0  0
   -2.7502    0.8207    0.0881 C   0  0  0  0  0  0  0  0  0  0  0  0
   -2.6263    1.7133    0.7136 H   0  0  0  0  0  0  0  0  0  0  0  0
   -3.7770    0.8093   -0.8726 C   0  0  0  0  0  0  0  0  0  0  0  0
   -4.4256    1.6923   -0.9750 H   0  0  0  0  0  0  0  0  0  0  0  0
   -3.9741   -0.3101   -1.6894 C   0  0  0  0  0  0  0  0  0  0  0  0
   -4.7768   -0.3133   -2.4417 H   0  0  0  0  0  0  0  0  0  0  0  0
   -3.1302   -1.4254   -1.5458 C   0  0  0  0  0  0  0  0  0  0  0  0
   -3.2633   -2.3077   -2.1895 H   0  0  0  0  0  0  0  0  0  0  0  0
   -2.0987   -1.4222   -0.6014 C   0  0  0  0  0  0  0  0  0  0  0  0
   -1.4028   -2.2732   -0.5179 H   0  0  0  0  0  0  0  0  0  0  0  0
  1 11  1  0  0  0  0
  2 12  1  0  0  0  0
  2 15  1  0  0  0  0
  3  1  1  0  0  0  0
  4  3  1  0  0  0  0
  5  3  1  0  0  0  0
  5  7  2  0  0  0  0
  6  5  1  0  0  0  0
  7  8  1  0  0  0  0
  7  9  1  0  0  0  0
  9 10  1  0  0  0  0
 11  9  2  0  0  0  0
 11 12  1  0  0  0  0
 12 13  1  0  0  0  0
 12 14  1  0  0  0  0
 15 16  1  0  0  0  0
 15 17  1  0  0  0  0
 18 15  1  0  0  0  0
 19  2  1  0  0  0  0
 20 19  1  0  0  0  0
 20 21  1  0  0  0  0
 22 20  2  0  0  0  0
 23 22  1  0  0  0  0
 24 26  2  0  0  0  0
 24 22  1  0  0  0  0
 25 24  1  0  0  0  0
 26 28  1  0  0  0  0
 27 26  1  0  0  0  0
 28 29  1  0  0  0  0
 28 19  2  0  0  0  0
M  END
