1,25
 OpenBabel05122313053D

 40 42  0  0  0  0  0  0  0  0999 V2000
   -0.0594    1.7730    0.3720 N   0  0  0  0  0  2  0  0  0  0  0  0
    1.0807    1.9156    1.5636 S   0  0  0  0  0  0  0  0  0  0  0  0
    0.7823    3.0396    2.4863 O   0  0  0  0  0  0  0  0  0  0  0  0
    1.1745    0.5330    2.1130 O   0  0  0  0  0  0  0  0  0  0  0  0
    2.6280    2.2938    0.7290 C   0  0  0  0  0  0  0  0  0  0  0  0
    3.5112    3.2008    1.3305 C   0  0  0  0  0  0  0  0  0  0  0  0
    4.7530    3.4416    0.7255 C   0  0  0  0  0  0  0  0  0  0  0  0
    5.1199    2.7926   -0.4710 C   0  0  0  0  0  0  0  0  0  0  0  0
    4.2010    1.8922   -1.0535 C   0  0  0  0  0  0  0  0  0  0  0  0
    2.9573    1.6344   -0.4669 C   0  0  0  0  0  0  0  0  0  0  0  0
    2.2572    0.9307   -0.9444 H   0  0  0  0  0  0  0  0  0  0  0  0
    4.4617    1.3752   -1.9905 H   0  0  0  0  0  0  0  0  0  0  0  0
    6.4507    3.0565   -1.1281 C   0  0  0  0  0  0  0  0  0  0  0  0
    6.3185    3.5540   -2.1121 H   0  0  0  0  0  0  0  0  0  0  0  0
    6.9982    2.1108   -1.3207 H   0  0  0  0  0  0  0  0  0  0  0  0
    7.0952    3.7061   -0.5051 H   0  0  0  0  0  0  0  0  0  0  0  0
    5.4539    4.1517    1.1923 H   0  0  0  0  0  0  0  0  0  0  0  0
    3.2134    3.7085    2.2595 H   0  0  0  0  0  0  0  0  0  0  0  0
   -0.5328    2.8108   -0.4090 C   0  0  0  0  0  0  0  0  0  0  0  0
   -0.0784    4.1513   -0.3760 C   0  0  0  0  0  0  0  0  0  0  0  0
   -0.6305    5.1086   -1.2328 C   0  0  0  0  0  0  0  0  0  0  0  0
   -1.6415    4.7640   -2.1502 C   0  0  0  0  0  0  0  0  0  0  0  0
   -2.1177    3.4499   -2.1857 C   0  0  0  0  0  0  0  0  0  0  0  0
   -1.5993    2.4701   -1.3130 C   0  0  0  0  0  0  0  0  0  0  0  0
   -2.0505    1.1398   -1.2731 N   0  0  0  0  0  2  0  0  0  0  0  0
   -3.2542    0.8133   -1.6704 C   0  0  0  0  0  3  0  0  0  0  0  0
   -3.7461   -0.5269   -1.7693 C   0  0  0  0  0  0  0  0  0  0  0  0
   -5.1129   -0.7690   -1.8831 N   0  0  0  0  0  0  0  0  0  0  0  0
   -5.3491   -2.1135   -1.9519 C   0  0  0  0  0  0  0  0  0  0  0  0
   -4.1138   -2.7717   -1.8998 C   0  0  0  0  0  0  0  0  0  0  0  0
   -3.1074   -1.7848   -1.7914 C   0  0  0  0  0  0  0  0  0  0  0  0
   -2.0244   -1.9507   -1.7617 H   0  0  0  0  0  0  0  0  0  0  0  0
   -3.9598   -3.8549   -1.9504 H   0  0  0  0  0  0  0  0  0  0  0  0
   -6.3666   -2.5093   -2.0441 H   0  0  0  0  0  0  0  0  0  0  0  0
   -5.8271   -0.0416   -1.8898 H   0  0  0  0  0  0  0  0  0  0  0  0
   -3.9705    1.6218   -1.9331 H   0  0  0  0  0  0  0  0  0  0  0  0
   -2.8771    3.1636   -2.9288 H   0  0  0  0  0  0  0  0  0  0  0  0
   -2.0415    5.5141   -2.8479 H   0  0  0  0  0  0  0  0  0  0  0  0
   -0.2538    6.1422   -1.1943 H   0  0  0  0  0  0  0  0  0  0  0  0
    0.6994    4.4317    0.3456 H   0  0  0  0  0  0  0  0  0  0  0  0
  1  2  1  0  0  0  0
  2  4  2  0  0  0  0
  2  3  2  0  0  0  0
  5  6  1  0  0  0  0
  5  2  1  0  0  0  0
  6 18  1  0  0  0  0
  7 17  1  0  0  0  0
  7  6  2  0  0  0  0
  8  7  1  0  0  0  0
  9  8  2  0  0  0  0
  9 10  1  0  0  0  0
 10  5  2  0  0  0  0
 11 10  1  0  0  0  0
 12  9  1  0  0  0  0
 13 16  1  0  0  0  0
 13  8  1  0  0  0  0
 14 13  1  0  0  0  0
 15 13  1  0  0  0  0
 19 20  1  0  0  0  0
 19  1  1  0  0  0  0
 20 40  1  0  0  0  0
 21 39  1  0  0  0  0
 21 20  2  0  0  0  0
 22 21  1  0  0  0  0
 23 22  2  0  0  0  0
 23 24  1  0  0  0  0
 24 25  1  0  0  0  0
 24 19  2  0  0  0  0
 26 25  1  0  0  0  0
 27 26  1  0  0  0  0
 28 27  1  0  0  0  0
 29 30  2  0  0  0  0
 29 28  1  0  0  0  0
 30 31  1  0  0  0  0
 31 27  2  0  0  0  0
 31 32  1  0  0  0  0
 33 30  1  0  0  0  0
 34 29  1  0  0  0  0
 35 28  1  0  0  0  0
 36 26  1  0  0  0  0
 37 23  1  0  0  0  0
 38 22  1  0  0  0  0
M  END
