1,2
 OpenBabel05122313053D

 52 53  0  0  0  0  0  0  0  0999 V2000
    0.7632   -1.1519   -0.9121 N   0  0  0  0  0  2  0  0  0  0  0  0
   -1.7732   -0.4375   -0.9747 N   0  0  0  0  0  2  0  0  0  0  0  0
    2.1541   -1.4284   -0.7980 C   0  0  0  0  0  0  0  0  0  0  0  0
    2.6705   -1.8036    0.4712 C   0  0  0  0  0  0  0  0  0  0  0  0
    4.0571   -2.0344    0.5563 C   0  0  0  0  0  0  0  0  0  0  0  0
    4.4900   -2.3386    1.5200 H   0  0  0  0  0  0  0  0  0  0  0  0
    4.9000   -1.8836   -0.5551 C   0  0  0  0  0  0  0  0  0  0  0  0
    5.9788   -2.0712   -0.4514 H   0  0  0  0  0  0  0  0  0  0  0  0
    4.3705   -1.4871   -1.7929 C   0  0  0  0  0  0  0  0  0  0  0  0
    5.0276   -1.3520   -2.6644 H   0  0  0  0  0  0  0  0  0  0  0  0
    2.9946   -1.2602   -1.9160 C   0  0  0  0  0  0  0  0  0  0  0  0
    2.5590   -0.9349   -2.8726 H   0  0  0  0  0  0  0  0  0  0  0  0
   -3.1092   -0.0137   -0.7314 C   0  0  0  0  0  0  0  0  0  0  0  0
   -3.7928   -0.4761    0.4274 C   0  0  0  0  0  0  0  0  0  0  0  0
   -5.0692    0.0683    0.6699 C   0  0  0  0  0  0  0  0  0  0  0  0
   -5.6291   -0.2650    1.5553 H   0  0  0  0  0  0  0  0  0  0  0  0
   -5.6544    1.0122   -0.1872 C   0  0  0  0  0  0  0  0  0  0  0  0
   -6.6545    1.4095    0.0393 H   0  0  0  0  0  0  0  0  0  0  0  0
   -4.9706    1.4340   -1.3357 C   0  0  0  0  0  0  0  0  0  0  0  0
   -5.4279    2.1571   -2.0267 H   0  0  0  0  0  0  0  0  0  0  0  0
   -3.6935    0.9243   -1.6051 C   0  0  0  0  0  0  0  0  0  0  0  0
   -3.1429    1.2310   -2.5069 H   0  0  0  0  0  0  0  0  0  0  0  0
   -0.0419   -1.9335   -1.5876 C   0  0  0  0  0  0  0  0  0  0  0  0
   -1.4891   -1.5580   -1.5758 C   0  0  0  0  0  0  0  0  0  0  0  0
    0.3891   -3.1873   -2.2828 C   0  0  0  0  0  0  0  0  0  0  0  0
    1.4263   -3.4624   -2.0232 H   0  0  0  0  0  0  0  0  0  0  0  0
    0.3345   -3.0558   -3.3848 H   0  0  0  0  0  0  0  0  0  0  0  0
   -0.2879   -4.0277   -2.0336 H   0  0  0  0  0  0  0  0  0  0  0  0
   -2.5092   -2.4793   -2.1700 C   0  0  0  0  0  0  0  0  0  0  0  0
   -3.5153   -2.0241   -2.1471 H   0  0  0  0  0  0  0  0  0  0  0  0
   -2.5464   -3.4378   -1.6103 H   0  0  0  0  0  0  0  0  0  0  0  0
   -2.2494   -2.7335   -3.2173 H   0  0  0  0  0  0  0  0  0  0  0  0
    1.7305   -1.9932    1.6527 C   0  0  0  0  0  0  0  0  0  0  0  0
    0.9024   -1.2586    1.5138 H   0  0  0  0  0  0  0  0  0  0  0  0
   -3.1571   -1.4925    1.3730 C   0  0  0  0  0  0  0  0  0  0  0  0
   -2.5449   -2.1829    0.7525 H   0  0  0  0  0  0  0  0  0  0  0  0
    2.3810   -1.7015    3.0091 C   0  0  0  0  0  0  0  0  0  0  0  0
    2.8767   -0.7101    3.0213 H   0  0  0  0  0  0  0  0  0  0  0  0
    3.1385   -2.4651    3.2793 H   0  0  0  0  0  0  0  0  0  0  0  0
    1.6151   -1.7109    3.8098 H   0  0  0  0  0  0  0  0  0  0  0  0
    1.0887   -3.3937    1.6299 C   0  0  0  0  0  0  0  0  0  0  0  0
    0.3530   -3.4997    2.4529 H   0  0  0  0  0  0  0  0  0  0  0  0
    1.8588   -4.1814    1.7566 H   0  0  0  0  0  0  0  0  0  0  0  0
    0.5612   -3.5943    0.6757 H   0  0  0  0  0  0  0  0  0  0  0  0
   -2.1942   -0.8093    2.3632 C   0  0  0  0  0  0  0  0  0  0  0  0
   -1.7152   -1.5592    3.0252 H   0  0  0  0  0  0  0  0  0  0  0  0
   -2.7360   -0.0827    3.0026 H   0  0  0  0  0  0  0  0  0  0  0  0
   -1.3850   -0.2591    1.8348 H   0  0  0  0  0  0  0  0  0  0  0  0
   -4.1833   -2.3557    2.1187 C   0  0  0  0  0  0  0  0  0  0  0  0
   -4.9083   -2.8264    1.4252 H   0  0  0  0  0  0  0  0  0  0  0  0
   -4.7562   -1.7658    2.8625 H   0  0  0  0  0  0  0  0  0  0  0  0
   -3.6683   -3.1622    2.6770 H   0  0  0  0  0  0  0  0  0  0  0  0
  1  3  1  0  0  0  0
  2 13  1  0  0  0  0
  3  4  1  0  0  0  0
  4  5  2  0  0  0  0
  4 33  1  0  0  0  0
  5  6  1  0  0  0  0
  7  8  1  0  0  0  0
  7  5  1  0  0  0  0
  9  7  2  0  0  0  0
 10  9  1  0  0  0  0
 11  9  1  0  0  0  0
 11  3  2  0  0  0  0
 12 11  1  0  0  0  0
 13 14  1  0  0  0  0
 14 15  2  0  0  0  0
 14 35  1  0  0  0  0
 15 16  1  0  0  0  0
 17 18  1  0  0  0  0
 17 15  1  0  0  0  0
 19 17  2  0  0  0  0
 20 19  1  0  0  0  0
 21 19  1  0  0  0  0
 21 13  2  0  0  0  0
 22 21  1  0  0  0  0
 23 24  2  0  0  0  0
 23  1  1  0  0  0  0
 24  2  1  0  0  0  0
 25 28  1  0  0  0  0
 25 26  1  0  0  0  0
 25 23  1  0  0  0  0
 27 25  1  0  0  0  0
 29 30  1  0  0  0  0
 29 31  1  0  0  0  0
 29 24  1  0  0  0  0
 32 29  1  0  0  0  0
 33 37  1  0  0  0  0
 34 33  1  0  0  0  0
 35 49  1  0  0  0  0
 35 45  1  0  0  0  0
 36 35  1  0  0  0  0
 37 38  1  0  0  0  0
 37 39  1  0  0  0  0
 37 40  1  0  0  0  0
 41 33  1  0  0  0  0
 41 43  1  0  0  0  0
 41 42  1  0  0  0  0
 44 41  1  0  0  0  0
 45 47  1  0  0  0  0
 45 46  1  0  0  0  0
 48 45  1  0  0  0  0
 49 52  1  0  0  0  0
 49 51  1  0  0  0  0
 50 49  1  0  0  0  0
M  END
