4,5
 OpenBabel05122313053D

 46 48  0  0  1  0  0  0  0  0999 V2000
   -0.5556    0.2548    2.0999 S   0  0  0  0  0  0  0  0  0  0  0  0
   -0.6709    1.5476    2.8203 O   0  0  0  0  0  0  0  0  0  0  0  0
    0.1059   -0.9011    2.7706 O   0  0  0  0  0  0  0  0  0  0  0  0
    0.9618    0.7706   -1.7528 N   0  0  0  0  0  2  0  0  0  0  0  0
    0.1203    0.5379    0.6029 N   0  0  0  0  0  2  0  0  0  0  0  0
    0.4817    2.0295   -1.2036 C   0  0  2  0  0  0  0  0  0  0  0  0
    0.6242    1.8887    0.3309 C   0  0  2  0  0  0  0  0  0  0  0  0
   -0.9582    2.3657   -1.6066 C   0  0  0  0  0  0  0  0  0  0  0  0
   -1.5151    3.6044   -1.2278 C   0  0  0  0  0  0  0  0  0  0  0  0
   -2.8501    3.9133   -1.5243 C   0  0  0  0  0  0  0  0  0  0  0  0
   -3.6500    2.9901   -2.2200 C   0  0  0  0  0  0  0  0  0  0  0  0
   -3.0994    1.7629   -2.6181 C   0  0  0  0  0  0  0  0  0  0  0  0
   -1.7638    1.4546   -2.3121 C   0  0  0  0  0  0  0  0  0  0  0  0
    2.0678    2.1052    0.7955 C   0  0  0  0  0  0  0  0  0  0  0  0
    2.7331    3.3086    0.4875 C   0  0  0  0  0  0  0  0  0  0  0  0
    4.0582    3.5258    0.8924 C   0  0  0  0  0  0  0  0  0  0  0  0
    4.7405    2.5412    1.6253 C   0  0  0  0  0  0  0  0  0  0  0  0
    4.0776    1.3513    1.9605 C   0  0  0  0  0  0  0  0  0  0  0  0
    2.7517    1.1362    1.5517 C   0  0  0  0  0  0  0  0  0  0  0  0
   -2.2297   -0.2963    1.7028 C   0  0  0  0  0  0  0  0  0  0  0  0
   -3.0221    0.4616    0.8257 C   0  0  0  0  0  0  0  0  0  0  0  0
   -4.3269    0.0407    0.5495 C   0  0  0  0  0  0  0  0  0  0  0  0
   -4.8662   -1.1219    1.1459 C   0  0  0  0  0  0  0  0  0  0  0  0
   -4.0541   -1.8508    2.0376 C   0  0  0  0  0  0  0  0  0  0  0  0
   -2.7408   -1.4441    2.3222 C   0  0  0  0  0  0  0  0  0  0  0  0
   -6.2767   -1.5551    0.8370 C   0  0  0  0  0  0  0  0  0  0  0  0
    1.1297    2.8692   -1.5414 H   0  0  0  0  0  0  0  0  0  0  0  0
   -0.0136    2.6367    0.8480 H   0  0  0  0  0  0  0  0  0  0  0  0
   -0.8972    4.3328   -0.6778 H   0  0  0  0  0  0  0  0  0  0  0  0
   -3.2706    4.8807   -1.2098 H   0  0  0  0  0  0  0  0  0  0  0  0
   -4.6984    3.2316   -2.4530 H   0  0  0  0  0  0  0  0  0  0  0  0
   -3.7168    1.0323   -3.1637 H   0  0  0  0  0  0  0  0  0  0  0  0
   -1.3336    0.4834   -2.5969 H   0  0  0  0  0  0  0  0  0  0  0  0
    2.2072    4.0967   -0.0760 H   0  0  0  0  0  0  0  0  0  0  0  0
    4.5598    4.4721    0.6376 H   0  0  0  0  0  0  0  0  0  0  0  0
    5.7807    2.7085    1.9442 H   0  0  0  0  0  0  0  0  0  0  0  0
    4.5939    0.5804    2.5538 H   0  0  0  0  0  0  0  0  0  0  0  0
    2.2301    0.2106    1.8341 H   0  0  0  0  0  0  0  0  0  0  0  0
    1.1957    0.8165   -2.7515 H   0  0  0  0  0  0  0  0  0  0  0  0
   -2.6136    1.3620    0.3469 H   0  0  0  0  0  0  0  0  0  0  0  0
   -4.9389    0.6286   -0.1529 H   0  0  0  0  0  0  0  0  0  0  0  0
   -4.4571   -2.7564    2.5183 H   0  0  0  0  0  0  0  0  0  0  0  0
   -2.1000   -2.0062    3.0173 H   0  0  0  0  0  0  0  0  0  0  0  0
   -6.5199   -2.5271    1.3073 H   0  0  0  0  0  0  0  0  0  0  0  0
   -7.0127   -0.8088    1.2036 H   0  0  0  0  0  0  0  0  0  0  0  0
   -6.4391   -1.6523   -0.2564 H   0  0  0  0  0  0  0  0  0  0  0  0
  1  3  2  0  0  0  0
  1  2  2  0  0  0  0
  4  6  1  0  0  0  0
  5  1  1  0  0  0  0
  6 27  1  6  0  0  0
  6  7  1  0  0  0  0
  7  5  1  0  0  0  0
  7 14  1  0  0  0  0
  7 28  1  1  0  0  0
  8  9  1  0  0  0  0
  8  6  1  0  0  0  0
  9 29  1  0  0  0  0
 10  9  2  0  0  0  0
 10 30  1  0  0  0  0
 11 10  1  0  0  0  0
 12 13  1  0  0  0  0
 12 11  2  0  0  0  0
 13  8  2  0  0  0  0
 14 19  1  0  0  0  0
 15 14  2  0  0  0  0
 15 16  1  0  0  0  0
 16 17  2  0  0  0  0
 17 36  1  0  0  0  0
 17 18  1  0  0  0  0
 18 37  1  0  0  0  0
 19 38  1  0  0  0  0
 19 18  2  0  0  0  0
 20  1  1  0  0  0  0
 20 25  1  0  0  0  0
 21 20  2  0  0  0  0
 22 21  1  0  0  0  0
 22 23  2  0  0  0  0
 23 24  1  0  0  0  0
 24 25  2  0  0  0  0
 24 42  1  0  0  0  0
 25 43  1  0  0  0  0
 26 23  1  0  0  0  0
 26 45  1  0  0  0  0
 26 44  1  0  0  0  0
 31 11  1  0  0  0  0
 32 12  1  0  0  0  0
 33 13  1  0  0  0  0
 34 15  1  0  0  0  0
 35 16  1  0  0  0  0
 39  4  1  0  0  0  0
 40 21  1  0  0  0  0
 41 22  1  0  0  0  0
 46 26  1  0  0  0  0
M  END
