1,2
 OpenBabel05122313053D

 40 41  0  0  1  0  0  0  0  0999 V2000
   -0.5792   -0.9722    1.8915 N   0  0  0  0  0  2  0  0  0  0  0  0
    1.7486   -0.3676    0.6585 N   0  0  0  0  0  2  0  0  0  0  0  0
    2.6568   -0.6359   -0.3738 C   0  0  0  0  0  0  0  0  0  0  0  0
    2.9039   -1.9536   -0.8767 C   0  0  0  0  0  0  0  0  0  0  0  0
   -1.8265   -1.4088    2.1444 C   0  0  0  0  0  3  0  0  0  0  0  0
   -2.6484   -0.7843    1.7620 H   0  0  0  0  0  0  0  0  0  0  0  0
    3.3192    0.4625   -1.0097 C   0  0  0  0  0  0  0  0  0  0  0  0
    0.4946   -1.6937    2.2863 C   0  0  0  0  0  0  0  0  0  0  0  0
    1.8466   -1.1048    1.9050 C   0  0  2  0  0  0  0  0  0  0  0  0
    2.5690   -1.9465    1.8278 H   0  0  0  0  0  0  0  0  0  0  0  0
    3.8143   -2.1328   -1.9354 C   0  0  0  0  0  0  0  0  0  0  0  0
    3.9812   -3.1557   -2.3147 H   0  0  0  0  0  0  0  0  0  0  0  0
    4.4814   -1.0628   -2.5534 C   0  0  0  0  0  0  0  0  0  0  0  0
    0.3288   -2.8958    2.9939 C   0  0  0  0  0  0  0  0  0  0  0  0
    1.2136   -3.4671    3.3101 H   0  0  0  0  0  0  0  0  0  0  0  0
   -0.9677   -3.3644    3.2537 C   0  0  0  0  0  0  0  0  0  0  0  0
   -1.1174   -4.3201    3.7792 H   0  0  0  0  0  0  0  0  0  0  0  0
   -2.0685   -2.6110    2.8204 C   0  0  0  0  0  0  0  0  0  0  0  0
   -3.1006   -2.9502    2.9870 H   0  0  0  0  0  0  0  0  0  0  0  0
    2.1429   -3.1513   -0.3612 C   0  0  0  0  0  0  0  0  0  0  0  0
    2.1121   -3.9531   -1.1248 H   0  0  0  0  0  0  0  0  0  0  0  0
    1.0985   -2.8805   -0.1047 H   0  0  0  0  0  0  0  0  0  0  0  0
    2.5879   -3.5973    0.5555 H   0  0  0  0  0  0  0  0  0  0  0  0
    3.0812    1.8635   -0.5130 C   0  0  0  0  0  0  0  0  0  0  0  0
    3.7648    2.5853   -1.0014 H   0  0  0  0  0  0  0  0  0  0  0  0
    3.2171    1.9225    0.5867 H   0  0  0  0  0  0  0  0  0  0  0  0
    2.0424    2.2024   -0.7064 H   0  0  0  0  0  0  0  0  0  0  0  0
    4.2011    0.2316   -2.0760 C   0  0  0  0  0  0  0  0  0  0  0  0
    4.7027    1.0972   -2.5414 H   0  0  0  0  0  0  0  0  0  0  0  0
    2.3707   -0.1845    3.0480 C   0  0  0  0  0  0  0  0  0  0  0  0
    3.2945    0.2877    2.6534 H   0  0  0  0  0  0  0  0  0  0  0  0
    1.6306    0.6364    3.1788 H   0  0  0  0  0  0  0  0  0  0  0  0
    5.4644   -1.2852   -3.6763 C   0  0  0  0  0  0  0  0  0  0  0  0
    5.3154   -0.5596   -4.5025 H   0  0  0  0  0  0  0  0  0  0  0  0
    5.3742   -2.3051   -4.1002 H   0  0  0  0  0  0  0  0  0  0  0  0
    6.5149   -1.1646   -3.3314 H   0  0  0  0  0  0  0  0  0  0  0  0
    2.6506   -0.8692    4.3850 C   0  0  0  0  0  0  0  0  0  0  0  0
    1.7293   -1.2858    4.8416 H   0  0  0  0  0  0  0  0  0  0  0  0
    3.0893   -0.1603    5.1159 H   0  0  0  0  0  0  0  0  0  0  0  0
    3.3705   -1.7064    4.2657 H   0  0  0  0  0  0  0  0  0  0  0  0
  1  5  1  0  0  0  0
  1  8  1  0  0  0  0
  2  9  1  0  0  0  0
  3  2  1  0  0  0  0
  4  3  1  0  0  0  0
  4 20  1  0  0  0  0
  5 18  1  0  0  0  0
  6  5  1  0  0  0  0
  7 24  1  0  0  0  0
  7  3  2  0  0  0  0
  8 14  2  0  0  0  0
  9 10  1  6  0  0  0
  9  8  1  0  0  0  0
  9 30  1  0  0  0  0
 11  4  2  0  0  0  0
 12 11  1  0  0  0  0
 13 28  2  0  0  0  0
 13 11  1  0  0  0  0
 14 16  1  0  0  0  0
 14 15  1  0  0  0  0
 16 17  1  0  0  0  0
 18 19  1  0  0  0  0
 18 16  2  0  0  0  0
 20 22  1  0  0  0  0
 20 23  1  0  0  0  0
 21 20  1  0  0  0  0
 24 26  1  0  0  0  0
 25 24  1  0  0  0  0
 27 24  1  0  0  0  0
 28  7  1  0  0  0  0
 29 28  1  0  0  0  0
 30 32  1  0  0  0  0
 30 37  1  0  0  0  0
 31 30  1  0  0  0  0
 33 36  1  0  0  0  0
 33 13  1  0  0  0  0
 34 33  1  0  0  0  0
 35 33  1  0  0  0  0
 37 38  1  0  0  0  0
 37 39  1  0  0  0  0
 40 37  1  0  0  0  0
M  END
