1,2
 OpenBabel05122313053D

 35 37  0  0  1  0  0  0  0  0999 V2000
   -1.0640   -1.2500   -0.0289 N   0  0  0  0  0  2  0  0  0  0  0  0
    0.2770    1.1728   -0.0665 N   0  0  0  0  0  0  0  0  0  0  0  0
   -1.6487   -2.4509   -0.0251 C   0  0  0  0  0  0  0  0  0  0  0  0
   -0.9451   -3.3019    0.0099 H   0  0  0  0  0  0  0  0  0  0  0  0
   -3.0555   -2.6029   -0.0557 C   0  0  0  0  0  0  0  0  0  0  0  0
   -3.4785   -3.6174   -0.0524 H   0  0  0  0  0  0  0  0  0  0  0  0
   -3.8679   -1.4813   -0.0856 C   0  0  0  0  0  0  0  0  0  0  0  0
   -4.9648   -1.5703   -0.1060 H   0  0  0  0  0  0  0  0  0  0  0  0
   -3.2733   -0.1867   -0.0909 C   0  0  0  0  0  0  0  0  0  0  0  0
   -4.0240    1.0206   -0.1216 C   0  0  0  0  0  3  0  0  0  0  0  0
   -5.1227    0.9646   -0.1385 H   0  0  0  0  0  0  0  0  0  0  0  0
   -3.3729    2.2455   -0.1333 C   0  0  0  0  0  0  0  0  0  0  0  0
   -3.9526    3.1800   -0.1549 H   0  0  0  0  0  0  0  0  0  0  0  0
   -1.9578    2.3114   -0.1212 C   0  0  0  0  0  0  0  0  0  0  0  0
   -1.4672    3.2944   -0.1362 H   0  0  0  0  0  0  0  0  0  0  0  0
   -1.1829    1.1525   -0.0840 C   0  0  0  0  0  0  0  0  0  0  0  0
   -1.8390   -0.1091   -0.0660 C   0  0  0  0  0  0  0  0  0  0  0  0
    1.1950    1.0223   -2.4537 C   0  0  0  0  0  0  0  0  0  0  0  0
    0.3480    0.3757   -2.7585 H   0  0  0  0  0  0  0  0  0  0  0  0
    2.0529    0.3782   -2.1789 H   0  0  0  0  0  0  0  0  0  0  0  0
    1.4775    1.6469   -3.3261 H   0  0  0  0  0  0  0  0  0  0  0  0
    0.8134    1.9318   -1.2978 C   0  0  2  0  0  0  0  0  0  0  0  0
   -0.0216    2.5847   -1.6296 H   0  0  0  0  0  0  0  0  0  0  0  0
    1.9226    2.8316   -0.7449 C   0  0  0  0  0  0  0  0  0  0  0  0
    2.1120    3.6903   -1.4184 H   0  0  0  0  0  0  0  0  0  0  0  0
    2.8542    2.2392   -0.6414 H   0  0  0  0  0  0  0  0  0  0  0  0
    1.3980    3.2233    0.6371 C   0  0  0  0  0  0  0  0  0  0  0  0
    2.1796    3.6405    1.3026 H   0  0  0  0  0  0  0  0  0  0  0  0
    0.5827    3.9780    0.5683 H   0  0  0  0  0  0  0  0  0  0  0  0
    0.8862    1.8849    1.1708 C   0  0  1  0  0  0  0  0  0  0  0  0
    1.7812    1.2698    1.3927 H   0  0  0  0  0  0  0  0  0  0  0  0
   -0.0070    1.8992    2.3967 C   0  0  0  0  0  0  0  0  0  0  0  0
   -0.3491    0.8756    2.6503 H   0  0  0  0  0  0  0  0  0  0  0  0
   -0.8960    2.5506    2.2881 H   0  0  0  0  0  0  0  0  0  0  0  0
    0.5857    2.2720    3.2554 H   0  0  0  0  0  0  0  0  0  0  0  0
  1  3  1  0  0  0  0
  2 30  1  0  0  0  0
  3  4  1  0  0  0  0
  5  6  1  0  0  0  0
  5  3  2  0  0  0  0
  7  5  1  0  0  0  0
  8  7  1  0  0  0  0
  9  7  2  0  0  0  0
  9 17  1  0  0  0  0
 10  9  1  0  0  0  0
 11 10  1  0  0  0  0
 12 10  1  0  0  0  0
 12 14  2  0  0  0  0
 13 12  1  0  0  0  0
 14 16  1  0  0  0  0
 15 14  1  0  0  0  0
 16  2  1  0  0  0  0
 16 17  2  0  0  0  0
 17  1  1  0  0  0  0
 18 20  1  0  0  0  0
 18 22  1  0  0  0  0
 19 18  1  0  0  0  0
 21 18  1  0  0  0  0
 22 23  1  6  0  0  0
 22 24  1  0  0  0  0
 22  2  1  0  0  0  0
 24 26  1  0  0  0  0
 24 27  1  0  0  0  0
 25 24  1  0  0  0  0
 27 30  1  0  0  0  0
 27 28  1  0  0  0  0
 29 27  1  0  0  0  0
 30 31  1  1  0  0  0
 30 32  1  0  0  0  0
 32 33  1  0  0  0  0
 32 35  1  0  0  0  0
 34 32  1  0  0  0  0
M  END
