1,2
 OpenBabel05122313053D

 54 59  0  0  1  0  0  0  0  0999 V2000
    1.3388    0.7568    0.1885 N   0  0  0  0  0  2  0  0  0  0  0  0
   -1.3544    0.6921    0.5702 N   0  0  0  0  0  2  0  0  0  0  0  0
    2.6423    0.7770   -0.1765 C   0  0  1  0  0  3  0  0  0  0  0  0
    3.3164   -0.4672   -0.6973 C   0  0  0  0  0  0  0  0  0  0  0  0
    4.7558   -0.1777   -1.1420 C   0  0  1  0  0  0  0  0  0  0  0  0
    4.7893    1.1320   -1.9714 C   0  0  0  0  0  0  0  0  0  0  0  0
    4.8426    1.8712   -0.5994 C   0  0  1  0  0  0  0  0  0  0  0  0
    3.4278    1.9583   -0.0977 C   0  0  0  0  0  0  0  0  0  0  0  0
    2.8408    3.1178    0.4149 C   0  0  0  0  0  0  0  0  0  0  0  0
    1.4839    3.1023    0.7447 C   0  0  0  0  0  0  0  0  0  0  0  0
    0.7384    1.9225    0.5810 C   0  0  0  0  0  0  0  0  0  0  0  0
   -0.7305    1.9005    0.7225 C   0  0  1  0  0  3  0  0  0  0  0  0
   -1.4693    3.0839    0.8900 C   0  0  0  0  0  0  0  0  0  0  0  0
   -2.8640    3.0453    0.8408 C   0  0  0  0  0  0  0  0  0  0  0  0
   -3.5013    1.8232    0.6154 C   0  0  0  0  0  0  0  0  0  0  0  0
   -4.9853    1.6582    0.4501 C   0  0  2  0  0  0  0  0  0  0  0  0
   -5.4277    0.4281    1.2952 C   0  0  0  0  0  0  0  0  0  0  0  0
   -4.9408   -0.4334    0.1013 C   0  0  2  0  0  0  0  0  0  0  0  0
   -3.4266   -0.6467    0.2308 C   0  0  0  0  0  0  0  0  0  0  0  0
   -2.7066    0.6513    0.4993 C   0  0  0  0  0  0  0  0  0  0  0  0
    5.5472    0.5829   -0.0147 C   0  0  0  0  0  0  0  0  0  0  0  0
    5.2938    0.2128    1.4455 C   0  0  0  0  0  0  0  0  0  0  0  0
    7.0581    0.5922   -0.2722 C   0  0  0  0  0  0  0  0  0  0  0  0
   -5.2695    0.7820   -0.8396 C   0  0  0  0  0  0  0  0  0  0  0  0
   -4.4127    1.0021   -2.0854 C   0  0  0  0  0  0  0  0  0  0  0  0
   -6.7497    0.8286   -1.2353 C   0  0  0  0  0  0  0  0  0  0  0  0
    3.3150   -1.2419    0.0941 H   0  0  0  0  0  0  0  0  0  0  0  0
    2.7056   -0.8760   -1.5308 H   0  0  0  0  0  0  0  0  0  0  0  0
    5.2253   -1.0880   -1.5663 H   0  0  0  0  0  0  0  0  0  0  0  0
    5.7198    1.2532   -2.5541 H   0  0  0  0  0  0  0  0  0  0  0  0
    3.9196    1.3479   -2.6239 H   0  0  0  0  0  0  0  0  0  0  0  0
    5.3726    2.8417   -0.5184 H   0  0  0  0  0  0  0  0  0  0  0  0
    3.4350    4.0372    0.5286 H   0  0  0  0  0  0  0  0  0  0  0  0
    1.0011    4.0154    1.1132 H   0  0  0  0  0  0  0  0  0  0  0  0
   -0.9553    4.0442    1.0166 H   0  0  0  0  0  0  0  0  0  0  0  0
   -3.4545    3.9680    0.9462 H   0  0  0  0  0  0  0  0  0  0  0  0
   -5.5248    2.6207    0.5587 H   0  0  0  0  0  0  0  0  0  0  0  0
   -4.9230    0.2830    2.2719 H   0  0  0  0  0  0  0  0  0  0  0  0
   -6.5215    0.3887    1.4445 H   0  0  0  0  0  0  0  0  0  0  0  0
   -5.4544   -1.3936   -0.1069 H   0  0  0  0  0  0  0  0  0  0  0  0
   -3.2273   -1.3536    1.0611 H   0  0  0  0  0  0  0  0  0  0  0  0
   -2.9881   -1.1044   -0.6818 H   0  0  0  0  0  0  0  0  0  0  0  0
    4.2245    0.2305    1.7299 H   0  0  0  0  0  0  0  0  0  0  0  0
    5.8260    0.9147    2.1206 H   0  0  0  0  0  0  0  0  0  0  0  0
    5.6789   -0.8064    1.6562 H   0  0  0  0  0  0  0  0  0  0  0  0
    7.4872   -0.4081   -0.0569 H   0  0  0  0  0  0  0  0  0  0  0  0
    7.5626    1.3230    0.3933 H   0  0  0  0  0  0  0  0  0  0  0  0
    7.3217    0.8498   -1.3158 H   0  0  0  0  0  0  0  0  0  0  0  0
   -4.6325    1.9929   -2.5351 H   0  0  0  0  0  0  0  0  0  0  0  0
   -4.6481    0.2316   -2.8482 H   0  0  0  0  0  0  0  0  0  0  0  0
   -3.3220    0.9491   -1.9045 H   0  0  0  0  0  0  0  0  0  0  0  0
   -7.4376    0.6897   -0.3792 H   0  0  0  0  0  0  0  0  0  0  0  0
   -6.9708    0.0317   -1.9749 H   0  0  0  0  0  0  0  0  0  0  0  0
   -6.9940    1.8015   -1.7098 H   0  0  0  0  0  0  0  0  0  0  0  0
  1 11  1  0  0  0  0
  2 12  1  0  0  0  0
  3  8  1  6  0  0  0
  3  1  1  0  0  0  0
  4  3  1  0  0  0  0
  4 27  1  0  0  0  0
  5 29  1  6  0  0  0
  5  4  1  0  0  0  0
  5 21  1  0  0  0  0
  6  5  1  0  0  0  0
  6  7  1  0  0  0  0
  7 32  1  1  0  0  0
  7  8  1  0  0  0  0
  7 21  1  0  0  0  0
  8  9  2  0  0  0  0
  9 33  1  0  0  0  0
  9 10  1  0  0  0  0
 10 34  1  0  0  0  0
 11 10  2  0  0  0  0
 12 11  1  6  0  0  0
 12 13  1  0  0  0  0
 13 35  1  0  0  0  0
 14 13  2  0  0  0  0
 14 36  1  0  0  0  0
 15 14  1  0  0  0  0
 16 37  1  1  0  0  0
 16 15  1  0  0  0  0
 16 17  1  0  0  0  0
 17 39  1  0  0  0  0
 17 38  1  0  0  0  0
 18 40  1  6  0  0  0
 18 19  1  0  0  0  0
 18 17  1  0  0  0  0
 19 20  1  0  0  0  0
 19 41  1  0  0  0  0
 20  2  1  0  0  0  0
 20 15  2  0  0  0  0
 21 22  1  0  0  0  0
 22 45  1  0  0  0  0
 22 43  1  0  0  0  0
 22 44  1  0  0  0  0
 23 46  1  0  0  0  0
 23 21  1  0  0  0  0
 23 47  1  0  0  0  0
 24 18  1  0  0  0  0
 24 16  1  0  0  0  0
 25 51  1  0  0  0  0
 25 24  1  0  0  0  0
 26 24  1  0  0  0  0
 26 52  1  0  0  0  0
 28  4  1  0  0  0  0
 30  6  1  0  0  0  0
 31  6  1  0  0  0  0
 42 19  1  0  0  0  0
 48 23  1  0  0  0  0
 49 25  1  0  0  0  0
 50 25  1  0  0  0  0
 53 26  1  0  0  0  0
 54 26  1  0  0  0  0
M  END
