1,4
 OpenBabel05122313053D

 32 32  0  0  1  0  0  0  0  0999 V2000
   -1.6642    0.0143    0.9024 N   0  0  0  0  0  2  0  0  0  0  0  0
   -3.7684   -1.0021    0.3646 N   0  0  0  0  0  2  0  0  0  0  0  0
   -4.5481   -0.6744   -1.9482 N   0  0  0  0  0  0  0  0  0  0  0  0
   -0.9480    0.2082   -1.6028 N   0  0  0  0  0  2  0  0  0  0  0  0
   -1.9471    0.0327    2.3647 C   0  0  0  0  0  0  0  0  0  0  0  0
   -3.2100    0.8716    2.6549 C   0  0  0  0  0  0  0  0  0  0  0  0
   -4.0857    0.4261    2.1485 H   0  0  0  0  0  0  0  0  0  0  0  0
   -3.0783    1.9114    2.2926 H   0  0  0  0  0  0  0  0  0  0  0  0
   -3.3959    0.9100    3.7480 H   0  0  0  0  0  0  0  0  0  0  0  0
   -2.1273   -1.3977    2.9111 C   0  0  0  0  0  0  0  0  0  0  0  0
   -2.9769   -1.8916    2.4043 H   0  0  0  0  0  0  0  0  0  0  0  0
   -2.3202   -1.3723    4.0034 H   0  0  0  0  0  0  0  0  0  0  0  0
   -1.2035   -1.9823    2.7385 H   0  0  0  0  0  0  0  0  0  0  0  0
   -0.7574    0.6876    3.0895 C   0  0  0  0  0  0  0  0  0  0  0  0
   -0.5792    1.7175    2.7241 H   0  0  0  0  0  0  0  0  0  0  0  0
    0.1702    0.1007    2.9412 H   0  0  0  0  0  0  0  0  0  0  0  0
   -0.9624    0.7325    4.1778 H   0  0  0  0  0  0  0  0  0  0  0  0
   -2.6231   -0.4588    0.0258 C   0  0  1  0  0  3  0  0  0  0  0  0
   -4.4936   -1.5432   -0.7652 C   0  0  0  0  0  0  0  0  0  0  0  0
   -4.0083   -2.5004   -1.0965 H   0  0  0  0  0  0  0  0  0  0  0  0
   -5.5363   -1.7795   -0.4698 H   0  0  0  0  0  0  0  0  0  0  0  0
   -3.3054   -0.1596   -2.2962 C   0  0  0  0  0  3  0  0  0  0  0  0
   -3.2271    0.3121   -3.2904 H   0  0  0  0  0  0  0  0  0  0  0  0
   -2.2605   -0.2088   -1.3963 C   0  0  1  0  0  3  0  0  0  0  0  0
   -0.7153    1.0411   -2.7643 C   0  0  0  0  0  0  0  0  0  0  0  0
    0.3171    1.4417   -2.7604 H   0  0  0  0  0  0  0  0  0  0  0  0
   -1.4150    1.9113   -2.7978 H   0  0  0  0  0  0  0  0  0  0  0  0
   -0.8595    0.4874   -3.7251 H   0  0  0  0  0  0  0  0  0  0  0  0
   -5.7161    0.1588   -2.1703 C   0  0  0  0  0  0  0  0  0  0  0  0
   -6.6390   -0.4526   -2.1062 H   0  0  0  0  0  0  0  0  0  0  0  0
   -5.6663    0.5941   -3.1907 H   0  0  0  0  0  0  0  0  0  0  0  0
   -5.8056    1.0068   -1.4487 H   0  0  0  0  0  0  0  0  0  0  0  0
  1  5  1  0  0  0  0
  3 19  1  0  0  0  0
  5  6  1  0  0  0  0
  5 10  1  0  0  0  0
  5 14  1  0  0  0  0
  6  9  1  0  0  0  0
  7  6  1  0  0  0  0
  8  6  1  0  0  0  0
 10 12  1  0  0  0  0
 11 10  1  0  0  0  0
 13 10  1  0  0  0  0
 14 17  1  0  0  0  0
 15 14  1  0  0  0  0
 16 14  1  0  0  0  0
 18  2  1  0  0  0  0
 18  1  1  1  0  0  0
 19 21  1  0  0  0  0
 19  2  1  0  0  0  0
 20 19  1  0  0  0  0
 22  3  1  0  0  0  0
 22 24  1  0  0  0  0
 23 22  1  0  0  0  0
 24  4  1  1  0  0  0
 24 18  1  0  0  0  0
 25 26  1  0  0  0  0
 25  4  1  0  0  0  0
 27 25  1  0  0  0  0
 28 25  1  0  0  0  0
 29 30  1  0  0  0  0
 29  3  1  0  0  0  0
 29 32  1  0  0  0  0
 31 29  1  0  0  0  0
M  END
