5,6
 OpenBabel05122313053D

 47 52  0  0  1  0  0  0  0  0999 V2000
   -6.7655   -0.8643    0.3843 F   0  0  0  0  0  0  0  0  0  0  0  0
   -5.0713   -1.8978   -0.8243 F   0  0  0  0  0  0  0  0  0  0  0  0
    2.4212    5.7860    0.4597 O   0  0  0  0  0  0  0  0  0  0  0  0
   -0.6137   -1.1792   -0.8115 N   0  0  0  0  0  0  0  0  0  0  0  0
    0.5085   -1.9258   -1.0423 N   0  0  0  0  0  2  0  0  0  0  0  0
    0.9079    0.4988   -0.3601 N   0  0  0  0  0  2  0  0  0  0  0  0
   -4.4814   -0.8329    1.2424 N   0  0  0  0  0  0  0  0  0  0  0  0
   -5.1003    0.4981   -0.7716 N   0  0  0  0  0  0  0  0  0  0  0  0
   -0.3903    0.1406   -0.3751 C   0  0  0  0  0  0  0  0  0  0  0  0
    0.2538    2.7903    0.1960 C   0  0  0  0  0  0  0  0  0  0  0  0
    1.2505    1.8198   -0.1744 C   0  0  2  0  0  3  0  0  0  0  0  0
   -1.0885    2.3432    0.3068 C   0  0  0  0  0  0  0  0  0  0  0  0
   -1.8742    3.0420    0.6301 H   0  0  0  0  0  0  0  0  0  0  0  0
   -1.4381    1.0324    0.0056 C   0  0  0  0  0  0  0  0  0  0  0  0
   -2.8464    0.5784    0.1254 C   0  0  0  0  0  3  0  0  0  0  0  0
    2.5859    2.2651   -0.3817 C   0  0  0  0  0  0  0  0  0  0  0  0
    3.3150    1.5504   -0.7809 H   0  0  0  0  0  0  0  0  0  0  0  0
    0.6236    4.1416    0.4342 C   0  0  0  0  0  0  0  0  0  0  0  0
   -0.1589    4.8515    0.7317 H   0  0  0  0  0  0  0  0  0  0  0  0
    1.9516    4.5424    0.2670 C   0  0  0  0  0  0  0  0  0  0  0  0
   -3.2023   -0.2839    1.1840 C   0  0  0  0  0  0  0  0  0  0  0  0
    2.9227    3.5871   -0.1721 C   0  0  0  0  0  0  0  0  0  0  0  0
    3.9439    3.9494   -0.3596 H   0  0  0  0  0  0  0  0  0  0  0  0
   -1.7347   -1.8759   -1.2167 C   0  0  0  0  0  3  0  0  0  0  0  0
   -2.7530   -1.4868   -1.1363 H   0  0  0  0  0  0  0  0  0  0  0  0
   -3.8008    1.0070   -0.8162 C   0  0  0  0  0  0  0  0  0  0  0  0
   -5.8186    1.1008   -1.7363 C   0  0  0  0  0  0  0  0  0  0  0  0
   -6.8699    0.8303   -1.8984 H   0  0  0  0  0  0  0  0  0  0  0  0
   -4.5762   -1.5621    2.3707 C   0  0  0  0  0  0  0  0  0  0  0  0
   -5.5024   -2.0997    2.6099 H   0  0  0  0  0  0  0  0  0  0  0  0
    0.1131   -3.0814   -1.5875 C   0  0  0  0  0  0  0  0  0  0  0  0
    0.8552   -3.8346   -1.8724 H   0  0  0  0  0  0  0  0  0  0  0  0
   -1.2962   -3.0939   -1.7117 C   0  0  0  0  0  0  0  0  0  0  0  0
   -1.9271   -3.8904   -2.1174 H   0  0  0  0  0  0  0  0  0  0  0  0
   -5.0069    2.0372   -2.4382 C   0  0  0  0  0  0  0  0  0  0  0  0
   -5.3386    2.6814   -3.2598 H   0  0  0  0  0  0  0  0  0  0  0  0
   -2.4801   -0.7046    2.3442 C   0  0  0  0  0  0  0  0  0  0  0  0
   -1.4592   -0.4024    2.6012 H   0  0  0  0  0  0  0  0  0  0  0  0
   -3.7316    1.9684   -1.8769 C   0  0  0  0  0  0  0  0  0  0  0  0
   -2.8446    2.5472   -2.1580 H   0  0  0  0  0  0  0  0  0  0  0  0
   -3.3521   -1.5003    3.0928 C   0  0  0  0  0  0  0  0  0  0  0  0
   -3.1571   -1.9760    4.0602 H   0  0  0  0  0  0  0  0  0  0  0  0
    1.5163    6.8082    0.8666 C   0  0  0  0  0  0  0  0  0  0  0  0
    2.1157    7.7304    0.9641 H   0  0  0  0  0  0  0  0  0  0  0  0
    0.7201    6.9664    0.1076 H   0  0  0  0  0  0  0  0  0  0  0  0
    1.0500    6.5673    1.8463 H   0  0  0  0  0  0  0  0  0  0  0  0
   -5.4495   -0.8289    0.0024 B   0  0  0  0  0  0  0  0  0  0  0  0
  2 47  1  0  0  0  0
  3 43  1  0  0  0  0
  4  9  1  0  0  0  0
  5  4  1  0  0  0  0
  6 11  1  0  0  0  0
  7 29  1  0  0  0  0
  8 47  1  0  0  0  0
  9  6  1  0  0  0  0
  9 14  2  0  0  0  0
 10 12  2  0  0  0  0
 10 18  1  0  0  0  0
 11 16  1  6  0  0  0
 11 10  1  0  0  0  0
 12 13  1  0  0  0  0
 14 15  1  0  0  0  0
 14 12  1  0  0  0  0
 15 21  1  0  0  0  0
 16 22  2  0  0  0  0
 17 16  1  0  0  0  0
 18 19  1  0  0  0  0
 20 18  2  0  0  0  0
 20  3  1  0  0  0  0
 21  7  1  0  0  0  0
 21 37  2  0  0  0  0
 22 20  1  0  0  0  0
 23 22  1  0  0  0  0
 24 25  1  0  0  0  0
 24  4  1  0  0  0  0
 26  8  1  0  0  0  0
 26 15  1  0  0  0  0
 27  8  1  0  0  0  0
 28 27  1  0  0  0  0
 29 30  1  0  0  0  0
 29 41  2  0  0  0  0
 31  5  1  0  0  0  0
 32 31  1  0  0  0  0
 33 31  2  0  0  0  0
 33 24  1  0  0  0  0
 34 33  1  0  0  0  0
 35 39  1  0  0  0  0
 35 27  2  0  0  0  0
 36 35  1  0  0  0  0
 37 38  1  0  0  0  0
 37 41  1  0  0  0  0
 39 26  2  0  0  0  0
 40 39  1  0  0  0  0
 41 42  1  0  0  0  0
 43 44  1  0  0  0  0
 43 46  1  0  0  0  0
 45 43  1  0  0  0  0
 47  1  1  0  0  0  0
 47  7  1  0  0  0  0
M  END
