3,4
 OpenBabel05122313053D

 33 35  0  0  1  0  0  0  0  0999 V2000
    3.0891    2.3747    0.7913 O   0  0  0  0  0  0  0  0  0  0  0  0
   -3.7601    1.2867   -0.8568 O   0  0  0  0  0  0  0  0  0  0  0  0
    2.1408    0.3222    0.6772 N   0  0  0  0  0  2  0  0  0  0  0  0
   -0.2994    1.3232    0.1163 N   0  0  0  0  0  2  0  0  0  0  0  0
   -2.8338   -0.0945    0.7051 N   0  0  0  0  0  0  0  0  0  0  0  0
    4.2325   -0.6842   -0.2288 C   0  0  0  0  0  0  0  0  0  0  0  0
    3.5668    0.0345    0.9459 C   0  0  1  0  0  0  0  0  0  0  0  0
    4.1407    1.4574    1.2092 C   0  0  0  0  0  0  0  0  0  0  0  0
    2.0112    1.6108    0.5598 C   0  0  0  0  0  0  0  0  0  0  0  0
    0.7274    2.2165    0.2270 C   0  0  0  0  0  0  0  0  0  0  0  0
    0.5749    3.6022    0.0682 C   0  0  0  0  0  0  0  0  0  0  0  0
   -0.6908    4.0990   -0.2534 C   0  0  0  0  0  0  0  0  0  0  0  0
   -1.7582    3.1977   -0.3411 C   0  0  0  0  0  0  0  0  0  0  0  0
   -1.5378    1.8254   -0.1118 C   0  0  0  0  0  0  0  0  0  0  0  0
   -2.7109    0.9252   -0.0613 C   0  0  0  0  0  0  0  0  0  0  0  0
   -4.8260    0.3556   -0.5321 C   0  0  0  0  0  0  0  0  0  0  0  0
   -4.1639   -0.6618    0.4451 C   0  0  2  0  0  0  0  0  0  0  0  0
   -4.9361   -0.9043    1.7384 C   0  0  0  0  0  0  0  0  0  0  0  0
    5.3260   -0.7441   -0.0552 H   0  0  0  0  0  0  0  0  0  0  0  0
    4.0316   -0.1462   -1.1761 H   0  0  0  0  0  0  0  0  0  0  0  0
    3.8463   -1.7132   -0.3384 H   0  0  0  0  0  0  0  0  0  0  0  0
    3.6305   -0.5926    1.8594 H   0  0  0  0  0  0  0  0  0  0  0  0
    4.3512    1.6552    2.2800 H   0  0  0  0  0  0  0  0  0  0  0  0
    5.0439    1.6815    0.6094 H   0  0  0  0  0  0  0  0  0  0  0  0
    1.4533    4.2517    0.1800 H   0  0  0  0  0  0  0  0  0  0  0  0
   -0.8490    5.1741   -0.4204 H   0  0  0  0  0  0  0  0  0  0  0  0
   -2.7799    3.5292   -0.5679 H   0  0  0  0  0  0  0  0  0  0  0  0
   -5.1863   -0.0953   -1.4764 H   0  0  0  0  0  0  0  0  0  0  0  0
   -5.6544    0.9276   -0.0602 H   0  0  0  0  0  0  0  0  0  0  0  0
   -3.9967   -1.6356   -0.0678 H   0  0  0  0  0  0  0  0  0  0  0  0
   -4.3575   -1.5719    2.4055 H   0  0  0  0  0  0  0  0  0  0  0  0
   -5.9171   -1.3775    1.5310 H   0  0  0  0  0  0  0  0  0  0  0  0
   -5.1130    0.0502    2.2751 H   0  0  0  0  0  0  0  0  0  0  0  0
  1  8  1  0  0  0  0
  2 16  1  0  0  0  0
  2 15  1  0  0  0  0
  3  7  1  0  0  0  0
  4 10  1  0  0  0  0
  6 19  1  0  0  0  0
  6  7  1  0  0  0  0
  7  8  1  0  0  0  0
  7 22  1  1  0  0  0
  8 23  1  0  0  0  0
  9  3  1  0  0  0  0
  9  1  1  0  0  0  0
 10  9  2  0  0  0  0
 11 25  1  0  0  0  0
 11 10  1  0  0  0  0
 12 11  2  0  0  0  0
 13 12  1  0  0  0  0
 13 14  2  0  0  0  0
 14 15  1  0  0  0  0
 14  4  1  0  0  0  0
 15  5  2  0  0  0  0
 16 29  1  0  0  0  0
 16 17  1  0  0  0  0
 17 30  1  6  0  0  0
 17  5  1  0  0  0  0
 17 18  1  0  0  0  0
 18 33  1  0  0  0  0
 18 31  1  0  0  0  0
 20  6  1  0  0  0  0
 21  6  1  0  0  0  0
 24  8  1  0  0  0  0
 26 12  1  0  0  0  0
 27 13  1  0  0  0  0
 28 16  1  0  0  0  0
 32 18  1  0  0  0  0
M  END
