1,3
 OpenBabel05122313053D

 33 34  0  0  0  0  0  0  0  0999 V2000
   -0.7057   -1.6855   -0.0369 N   0  0  0  0  0  2  0  0  0  0  0  0
   -1.7089   -1.9087   -0.0298 H   0  0  0  0  0  0  0  0  0  0  0  0
    1.6417   -0.8889   -0.0568 N   0  0  0  0  0  2  0  0  0  0  0  0
    0.1729   -2.7079   -0.0729 C   0  0  0  0  0  0  0  0  0  0  0  0
   -0.1016   -4.1020   -0.1017 C   0  0  0  0  0  0  0  0  0  0  0  0
   -1.1463   -4.4491   -0.0938 H   0  0  0  0  0  0  0  0  0  0  0  0
    0.9586   -5.0043   -0.1389 C   0  0  0  0  0  0  0  0  0  0  0  0
    0.7534   -6.0851   -0.1605 H   0  0  0  0  0  0  0  0  0  0  0  0
    2.3066   -4.5486   -0.1509 C   0  0  0  0  0  0  0  0  0  0  0  0
    3.1239   -5.2848   -0.1828 H   0  0  0  0  0  0  0  0  0  0  0  0
    2.6091   -3.1882   -0.1254 C   0  0  0  0  0  0  0  0  0  0  0  0
    3.6491   -2.8313   -0.1387 H   0  0  0  0  0  0  0  0  0  0  0  0
    1.5465   -2.2461   -0.0837 C   0  0  0  0  0  0  0  0  0  0  0  0
    2.9072   -0.2510   -0.0370 C   0  0  0  0  0  0  0  0  0  0  0  0
    3.5748   -0.0585    1.2003 C   0  0  0  0  0  0  0  0  0  0  0  0
    4.8079    0.6158    1.1978 C   0  0  0  0  0  0  0  0  0  0  0  0
    5.3264    0.7724    2.1580 H   0  0  0  0  0  0  0  0  0  0  0  0
    5.3905    1.1029    0.0118 C   0  0  0  0  0  0  0  0  0  0  0  0
    4.6960    0.9085   -1.1967 C   0  0  0  0  0  0  0  0  0  0  0  0
    5.1281    1.2924   -2.1354 H   0  0  0  0  0  0  0  0  0  0  0  0
    3.4601    0.2388   -1.2477 C   0  0  0  0  0  0  0  0  0  0  0  0
    2.7170    0.0491   -2.5431 C   0  0  0  0  0  0  0  0  0  0  0  0
    1.7127    0.5192   -2.4890 H   0  0  0  0  0  0  0  0  0  0  0  0
    3.2708    0.4871   -3.3949 H   0  0  0  0  0  0  0  0  0  0  0  0
    2.5427   -1.0266   -2.7526 H   0  0  0  0  0  0  0  0  0  0  0  0
    2.9464   -0.5540    2.4749 C   0  0  0  0  0  0  0  0  0  0  0  0
    2.8852   -1.6625    2.4902 H   0  0  0  0  0  0  0  0  0  0  0  0
    3.5194   -0.2264    3.3628 H   0  0  0  0  0  0  0  0  0  0  0  0
    1.9031   -0.1858    2.5628 H   0  0  0  0  0  0  0  0  0  0  0  0
    6.7317    1.7928    0.0362 C   0  0  0  0  0  0  0  0  0  0  0  0
    7.5611    1.0535    0.0017 H   0  0  0  0  0  0  0  0  0  0  0  0
    6.8607    2.4683   -0.8322 H   0  0  0  0  0  0  0  0  0  0  0  0
    6.8688    2.3878    0.9611 H   0  0  0  0  0  0  0  0  0  0  0  0
  1  2  1  0  0  0  0
  3 14  1  0  0  0  0
  4  1  1  0  0  0  0
  5  6  1  0  0  0  0
  5  4  2  0  0  0  0
  7  5  1  0  0  0  0
  8  7  1  0  0  0  0
  9  7  2  0  0  0  0
  9 11  1  0  0  0  0
 10  9  1  0  0  0  0
 11 13  2  0  0  0  0
 12 11  1  0  0  0  0
 13  4  1  0  0  0  0
 13  3  1  0  0  0  0
 14 15  1  0  0  0  0
 15 26  1  0  0  0  0
 16 15  2  0  0  0  0
 16 17  1  0  0  0  0
 18 30  1  0  0  0  0
 18 16  1  0  0  0  0
 19 18  2  0  0  0  0
 20 19  1  0  0  0  0
 21 19  1  0  0  0  0
 21 14  2  0  0  0  0
 22 23  1  0  0  0  0
 22 21  1  0  0  0  0
 24 22  1  0  0  0  0
 25 22  1  0  0  0  0
 26 27  1  0  0  0  0
 26 29  1  0  0  0  0
 26 28  1  0  0  0  0
 30 33  1  0  0  0  0
 31 30  1  0  0  0  0
 32 30  1  0  0  0  0
M  END
