3,15
 OpenBabel05122313053D

 24 25  0  0  0  0  0  0  0  0999 V2000
   -5.2775   -0.1642   -0.2747 O   0  5  0  0  0  0  0  0  0  0  0  0
   -5.7618   -2.3540    0.2342 O   0  0  0  0  0  0  0  0  0  0  0  0
   -1.2878   -0.7650    0.0030 N   0  0  0  0  0  2  0  0  0  0  0  0
   -1.5720   -3.1520    0.0042 C   0  0  0  0  0  0  0  0  0  0  0  0
   -1.1226   -4.1555   -0.0047 H   0  0  0  0  0  0  0  0  0  0  0  0
   -5.0333   -1.3714   -0.0090 C   0  0  0  0  0  0  0  0  0  0  0  0
   -0.7306   -2.0251    0.0014 C   0  0  0  0  0  0  0  0  0  0  0  0
   -2.6241   -0.6084   -0.0080 C   0  0  0  0  0  0  0  0  0  0  0  0
   -3.0815    0.3942   -0.0651 H   0  0  0  0  0  0  0  0  0  0  0  0
   -3.5065   -1.6884    0.0177 C   0  0  0  0  0  0  0  0  0  0  0  0
   -2.9633   -2.9835    0.0373 C   0  0  0  0  0  0  0  0  0  0  0  0
   -3.6687   -3.8283    0.0828 H   0  0  0  0  0  0  0  0  0  0  0  0
    5.2775   -0.1641    0.2745 O   0  5  0  0  0  0  0  0  0  0  0  0
    5.7618   -2.3539   -0.2344 O   0  0  0  0  0  0  0  0  0  0  0  0
    1.2878   -0.7650   -0.0029 N   0  0  0  0  0  2  0  0  0  0  0  0
    1.5721   -3.1520   -0.0041 C   0  0  0  0  0  0  0  0  0  0  0  0
    1.1228   -4.1554    0.0048 H   0  0  0  0  0  0  0  0  0  0  0  0
    5.0333   -1.3713    0.0089 C   0  0  0  0  0  0  0  0  0  0  0  0
    0.7307   -2.0251   -0.0013 C   0  0  0  0  0  0  0  0  0  0  0  0
    2.6241   -0.6083    0.0081 C   0  0  0  0  0  0  0  0  0  0  0  0
    3.0815    0.3943    0.0652 H   0  0  0  0  0  0  0  0  0  0  0  0
    3.5066   -1.6883   -0.0178 C   0  0  0  0  0  0  0  0  0  0  0  0
    2.9634   -2.9834   -0.0373 C   0  0  0  0  0  0  0  0  0  0  0  0
    3.6688   -3.8282   -0.0829 H   0  0  0  0  0  0  0  0  0  0  0  0
  1  6  1  0  0  0  0
  4 11  2  0  0  0  0
  5  4  1  0  0  0  0
  6 10  1  0  0  0  0
  6  2  2  0  0  0  0
  7  3  1  0  0  0  0
  7  4  1  0  0  0  0
  8  3  1  0  0  0  0
  8 10  2  0  0  0  0
  9  8  1  0  0  0  0
 10 11  1  0  0  0  0
 11 12  1  0  0  0  0
 14 18  2  0  0  0  0
 15 19  1  0  0  0  0
 15 20  1  0  0  0  0
 16 19  1  0  0  0  0
 16 17  1  0  0  0  0
 18 13  1  0  0  0  0
 19  7  2  0  0  0  0
 20 21  1  0  0  0  0
 22 20  2  0  0  0  0
 22 18  1  0  0  0  0
 23 22  1  0  0  0  0
 23 16  2  0  0  0  0
 24 23  1  0  0  0  0
M  CHG  2   1  -1  13  -1
M  END
