2,4
 OpenBabel05122313053D

 28 28  0  0  1  0  0  0  0  0999 V2000
   -0.4252    0.6181   -1.5918 H   0  0  0  0  0  0  0  0  0  0  0  0
   -0.5282    1.1912   -0.7314 N   0  0  0  0  0  0  0  0  0  0  0  0
   -0.7247   -0.3472    2.1320 H   0  0  0  0  0  0  0  0  0  0  0  0
   -0.5642   -0.8319    1.2378 N   0  0  0  0  0  0  0  0  0  0  0  0
   -1.7630   -0.6255    0.3865 C   0  0  1  0  0  0  0  0  0  0  0  0
   -1.6004   -1.2601   -0.5132 H   0  0  0  0  0  0  0  0  0  0  0  0
   -3.0769   -1.0239    1.0773 C   0  0  0  0  0  0  0  0  0  0  0  0
   -3.1835   -0.4245    2.0113 H   0  0  0  0  0  0  0  0  0  0  0  0
   -3.0359   -2.0877    1.3854 H   0  0  0  0  0  0  0  0  0  0  0  0
   -4.2926   -0.7837    0.1757 C   0  0  0  0  0  0  0  0  0  0  0  0
   -4.2293   -1.4552   -0.7088 H   0  0  0  0  0  0  0  0  0  0  0  0
   -5.2237   -1.0588    0.7122 H   0  0  0  0  0  0  0  0  0  0  0  0
   -4.3460    0.6720   -0.2935 C   0  0  0  0  0  0  0  0  0  0  0  0
   -5.2007    0.8324   -0.9822 H   0  0  0  0  0  0  0  0  0  0  0  0
   -4.5212    1.3362    0.5820 H   0  0  0  0  0  0  0  0  0  0  0  0
   -3.0380    1.0764   -0.9818 C   0  0  0  0  0  0  0  0  0  0  0  0
   -3.0838    2.1403   -1.2888 H   0  0  0  0  0  0  0  0  0  0  0  0
   -2.9043    0.4800   -1.9124 H   0  0  0  0  0  0  0  0  0  0  0  0
   -1.8132    0.8388   -0.0808 C   0  0  2  0  0  0  0  0  0  0  0  0
   -1.8988    1.4894    0.8215 H   0  0  0  0  0  0  0  0  0  0  0  0
   -0.3850    2.6208   -1.0483 C   0  0  0  0  0  0  0  0  0  0  0  0
    0.5732    2.7843   -1.5736 H   0  0  0  0  0  0  0  0  0  0  0  0
   -0.3664    3.2069   -0.1086 H   0  0  0  0  0  0  0  0  0  0  0  0
   -1.2066    3.0020   -1.6907 H   0  0  0  0  0  0  0  0  0  0  0  0
   -0.2748   -2.2514    1.5221 C   0  0  0  0  0  0  0  0  0  0  0  0
    0.0310   -2.7400    0.5769 H   0  0  0  0  0  0  0  0  0  0  0  0
   -1.1469   -2.7835    1.9571 H   0  0  0  0  0  0  0  0  0  0  0  0
    0.5687   -2.3148    2.2332 H   0  0  0  0  0  0  0  0  0  0  0  0
  1  2  1  0  0  0  0
  2 19  1  0  0  0  0
  4 25  1  0  0  0  0
  4  3  1  0  0  0  0
  5  6  1  6  0  0  0
  5  7  1  0  0  0  0
  5  4  1  0  0  0  0
  7  9  1  0  0  0  0
  7  8  1  0  0  0  0
 10 12  1  0  0  0  0
 10  7  1  0  0  0  0
 11 10  1  0  0  0  0
 13 10  1  0  0  0  0
 13 15  1  0  0  0  0
 14 13  1  0  0  0  0
 16 13  1  0  0  0  0
 16 19  1  0  0  0  0
 17 16  1  0  0  0  0
 18 16  1  0  0  0  0
 19  5  1  0  0  0  0
 19 20  1  1  0  0  0
 21  2  1  0  0  0  0
 21 23  1  0  0  0  0
 22 21  1  0  0  0  0
 24 21  1  0  0  0  0
 25 27  1  0  0  0  0
 25 28  1  0  0  0  0
 26 25  1  0  0  0  0
M  END
