1,2
 OpenBabel05122313053D

 36 37  0  0  1  0  0  0  0  0999 V2000
    2.1899    1.1008   -0.0199 N   0  0  0  0  0  2  0  0  0  0  0  0
   -0.4470    1.0066   -0.0053 N   0  0  0  0  0  2  0  0  0  0  0  0
    3.5356    1.0991   -0.0023 C   0  0  0  0  0  3  0  0  0  0  0  0
    4.0276    0.1152    0.0059 H   0  0  0  0  0  0  0  0  0  0  0  0
    4.2957    2.2776    0.0057 C   0  0  0  0  0  0  0  0  0  0  0  0
    5.3929    2.2156    0.0199 H   0  0  0  0  0  0  0  0  0  0  0  0
    3.6320    3.5097   -0.0060 C   0  0  0  0  0  0  0  0  0  0  0  0
    4.1951    4.4543   -0.0005 H   0  0  0  0  0  0  0  0  0  0  0  0
    2.2296    3.5187   -0.0243 C   0  0  0  0  0  0  0  0  0  0  0  0
    1.6797    4.4690   -0.0317 H   0  0  0  0  0  0  0  0  0  0  0  0
    1.5299    2.3016   -0.0295 C   0  0  0  0  0  0  0  0  0  0  0  0
    0.0546    2.2159   -0.0425 C   0  0  1  0  0  3  0  0  0  0  0  0
   -0.7724    3.4613   -0.1032 C   0  0  0  0  0  0  0  0  0  0  0  0
   -1.8493    3.2203   -0.1426 H   0  0  0  0  0  0  0  0  0  0  0  0
   -0.5062    4.0632   -0.9963 H   0  0  0  0  0  0  0  0  0  0  0  0
   -0.5830    4.0991    0.7850 H   0  0  0  0  0  0  0  0  0  0  0  0
   -1.8632    0.7976   -0.0217 C   0  0  0  0  0  0  0  0  0  0  0  0
   -2.5698    0.7687    1.2050 C   0  0  0  0  0  0  0  0  0  0  0  0
   -3.9427    0.4725    1.1590 C   0  0  0  0  0  0  0  0  0  0  0  0
   -4.5038    0.4371    2.1065 H   0  0  0  0  0  0  0  0  0  0  0  0
   -4.6171    0.2190   -0.0518 C   0  0  0  0  0  0  0  0  0  0  0  0
   -3.8752    0.2705   -1.2467 C   0  0  0  0  0  0  0  0  0  0  0  0
   -4.3827    0.0782   -2.2054 H   0  0  0  0  0  0  0  0  0  0  0  0
   -2.4988    0.5591   -1.2630 C   0  0  0  0  0  0  0  0  0  0  0  0
   -1.8683    1.0657    2.5057 C   0  0  0  0  0  0  0  0  0  0  0  0
   -2.5033    0.8025    3.3718 H   0  0  0  0  0  0  0  0  0  0  0  0
   -1.6203    2.1451    2.5973 H   0  0  0  0  0  0  0  0  0  0  0  0
   -0.9084    0.5141    2.5939 H   0  0  0  0  0  0  0  0  0  0  0  0
   -6.0951   -0.0726   -0.0632 C   0  0  0  0  0  0  0  0  0  0  0  0
   -6.3863   -0.7315    0.7786 H   0  0  0  0  0  0  0  0  0  0  0  0
   -6.4111   -0.5552   -1.0076 H   0  0  0  0  0  0  0  0  0  0  0  0
   -6.6825    0.8643    0.0429 H   0  0  0  0  0  0  0  0  0  0  0  0
   -1.7207    0.6412   -2.5505 C   0  0  0  0  0  0  0  0  0  0  0  0
   -1.4277    1.6878   -2.7825 H   0  0  0  0  0  0  0  0  0  0  0  0
   -2.3165    0.2689   -3.4043 H   0  0  0  0  0  0  0  0  0  0  0  0
   -0.7764    0.0570   -2.4959 H   0  0  0  0  0  0  0  0  0  0  0  0
  1  3  1  0  0  0  0
  3  5  1  0  0  0  0
  3  4  1  0  0  0  0
  5  6  1  0  0  0  0
  7  8  1  0  0  0  0
  7  5  2  0  0  0  0
  9  7  1  0  0  0  0
 10  9  1  0  0  0  0
 11  9  2  0  0  0  0
 11  1  1  0  0  0  0
 12 11  1  0  0  0  0
 12  2  1  6  0  0  0
 13 12  1  0  0  0  0
 13 16  1  0  0  0  0
 14 13  1  0  0  0  0
 15 13  1  0  0  0  0
 17  2  1  0  0  0  0
 17 18  1  0  0  0  0
 18 25  1  0  0  0  0
 19 18  2  0  0  0  0
 19 20  1  0  0  0  0
 21 19  1  0  0  0  0
 22 21  2  0  0  0  0
 23 22  1  0  0  0  0
 24 22  1  0  0  0  0
 24 17  2  0  0  0  0
 25 28  1  0  0  0  0
 25 27  1  0  0  0  0
 25 26  1  0  0  0  0
 29 21  1  0  0  0  0
 29 32  1  0  0  0  0
 29 30  1  0  0  0  0
 31 29  1  0  0  0  0
 33 36  1  0  0  0  0
 33 24  1  0  0  0  0
 34 33  1  0  0  0  0
 35 33  1  0  0  0  0
M  END
