1,2
 OpenBabel05122313053D

 53 55  0  0  0  0  0  0  0  0999 V2000
    0.0215   -0.0783    0.1086 N   0  0  0  0  0  2  0  0  0  0  0  0
    1.5425    2.0246    0.0657 N   0  0  0  0  0  2  0  0  0  0  0  0
    0.0202    3.5437    0.6239 N   0  0  0  0  0  0  0  0  0  0  0  0
   -0.6453    1.0605    0.2463 C   0  0  0  0  0  0  0  0  0  0  0  0
   -2.1244    1.1808    0.2302 C   0  0  0  0  0  0  0  0  0  0  0  0
   -2.7118    2.0306   -0.7352 C   0  0  0  0  0  0  0  0  0  0  0  0
   -2.0657    2.5758   -1.4408 H   0  0  0  0  0  0  0  0  0  0  0  0
   -4.1050    2.1464   -0.8286 C   0  0  0  0  0  0  0  0  0  0  0  0
   -4.5487    2.7985   -1.5958 H   0  0  0  0  0  0  0  0  0  0  0  0
   -4.9297    1.4180    0.0434 C   0  0  0  0  0  0  0  0  0  0  0  0
   -6.0241    1.5066   -0.0294 H   0  0  0  0  0  0  0  0  0  0  0  0
   -4.3539    0.5677    1.0016 C   0  0  0  0  0  0  0  0  0  0  0  0
   -4.9951   -0.0116    1.6824 H   0  0  0  0  0  0  0  0  0  0  0  0
   -2.9616    0.4417    1.0931 C   0  0  0  0  0  0  0  0  0  0  0  0
   -2.5181   -0.2360    1.8337 H   0  0  0  0  0  0  0  0  0  0  0  0
   -0.6622   -1.3351    0.0885 C   0  0  0  0  0  0  0  0  0  0  0  0
   -1.3364   -1.7515   -1.0864 C   0  0  0  0  0  0  0  0  0  0  0  0
   -2.0149   -2.9827   -1.0427 C   0  0  0  0  0  0  0  0  0  0  0  0
   -2.5462   -3.3324   -1.9406 H   0  0  0  0  0  0  0  0  0  0  0  0
   -2.0141   -3.7739    0.1122 C   0  0  0  0  0  0  0  0  0  0  0  0
   -2.5557   -4.7319    0.1234 H   0  0  0  0  0  0  0  0  0  0  0  0
   -1.3022   -3.3575    1.2437 C   0  0  0  0  0  0  0  0  0  0  0  0
   -1.2790   -3.9972    2.1392 H   0  0  0  0  0  0  0  0  0  0  0  0
   -0.5998   -2.1398    1.2547 C   0  0  0  0  0  0  0  0  0  0  0  0
    0.2252    2.2214    0.2951 C   0  0  0  0  0  0  0  0  0  0  0  0
    2.1926    3.2140    0.2108 C   0  0  0  0  0  0  0  0  0  0  0  0
    3.2762    3.2802    0.0620 H   0  0  0  0  0  0  0  0  0  0  0  0
    1.2505    4.1713    0.5618 C   0  0  0  0  0  0  0  0  0  0  0  0
    1.3558    5.2373    0.7872 H   0  0  0  0  0  0  0  0  0  0  0  0
   -1.2157    4.1914    1.0437 C   0  0  0  0  0  0  0  0  0  0  0  0
   -1.8193    3.4976    1.6554 H   0  0  0  0  0  0  0  0  0  0  0  0
   -1.8243    4.5091    0.1749 H   0  0  0  0  0  0  0  0  0  0  0  0
   -0.9577    5.0778    1.6513 H   0  0  0  0  0  0  0  0  0  0  0  0
   -1.2612   -0.9584   -2.3841 C   0  0  0  0  0  0  0  0  0  0  0  0
   -0.8592    0.0474   -2.1465 H   0  0  0  0  0  0  0  0  0  0  0  0
   -0.2542   -1.6240   -3.3420 C   0  0  0  0  0  0  0  0  0  0  0  0
   -0.1231   -1.0116   -4.2579 H   0  0  0  0  0  0  0  0  0  0  0  0
   -0.6130   -2.6283   -3.6498 H   0  0  0  0  0  0  0  0  0  0  0  0
    0.7317   -1.7514   -2.8520 H   0  0  0  0  0  0  0  0  0  0  0  0
   -2.6353   -0.7638   -3.0422 C   0  0  0  0  0  0  0  0  0  0  0  0
   -2.5469   -0.1091   -3.9332 H   0  0  0  0  0  0  0  0  0  0  0  0
   -3.3623   -0.3022   -2.3444 H   0  0  0  0  0  0  0  0  0  0  0  0
   -3.0620   -1.7272   -3.3897 H   0  0  0  0  0  0  0  0  0  0  0  0
    0.2069   -1.7258    2.4816 C   0  0  0  0  0  0  0  0  0  0  0  0
    0.7016   -0.7612    2.2438 H   0  0  0  0  0  0  0  0  0  0  0  0
    1.3256   -2.7403    2.7732 C   0  0  0  0  0  0  0  0  0  0  0  0
    1.9480   -2.3929    3.6232 H   0  0  0  0  0  0  0  0  0  0  0  0
    1.9746   -2.8587    1.8836 H   0  0  0  0  0  0  0  0  0  0  0  0
    0.9109   -3.7339    3.0430 H   0  0  0  0  0  0  0  0  0  0  0  0
   -0.6840   -1.5051    3.7164 C   0  0  0  0  0  0  0  0  0  0  0  0
   -0.0710   -1.1947    4.5871 H   0  0  0  0  0  0  0  0  0  0  0  0
   -1.2199   -2.4344    4.0010 H   0  0  0  0  0  0  0  0  0  0  0  0
   -1.4475   -0.7174    3.5491 H   0  0  0  0  0  0  0  0  0  0  0  0
  1  4  1  0  0  0  0
  2 26  1  0  0  0  0
  2 25  1  0  0  0  0
  3 30  1  0  0  0  0
  4 25  2  0  0  0  0
  5  4  1  0  0  0  0
  5 14  1  0  0  0  0
  6  5  2  0  0  0  0
  7  6  1  0  0  0  0
  8  6  1  0  0  0  0
  8 10  2  0  0  0  0
  9  8  1  0  0  0  0
 10 12  1  0  0  0  0
 11 10  1  0  0  0  0
 12 14  2  0  0  0  0
 12 13  1  0  0  0  0
 14 15  1  0  0  0  0
 16  1  1  0  0  0  0
 16 24  1  0  0  0  0
 17 18  1  0  0  0  0
 17 16  2  0  0  0  0
 18 20  2  0  0  0  0
 19 18  1  0  0  0  0
 20 21  1  0  0  0  0
 20 22  1  0  0  0  0
 22 24  2  0  0  0  0
 22 23  1  0  0  0  0
 24 44  1  0  0  0  0
 25  3  1  0  0  0  0
 26 28  2  0  0  0  0
 27 26  1  0  0  0  0
 28  3  1  0  0  0  0
 28 29  1  0  0  0  0
 30 33  1  0  0  0  0
 30 31  1  0  0  0  0
 32 30  1  0  0  0  0
 34 35  1  0  0  0  0
 34 17  1  0  0  0  0
 36 39  1  0  0  0  0
 36 34  1  0  0  0  0
 37 36  1  0  0  0  0
 38 36  1  0  0  0  0
 40 34  1  0  0  0  0
 40 42  1  0  0  0  0
 41 40  1  0  0  0  0
 43 40  1  0  0  0  0
 44 46  1  0  0  0  0
 44 50  1  0  0  0  0
 45 44  1  0  0  0  0
 46 49  1  0  0  0  0
 46 47  1  0  0  0  0
 48 46  1  0  0  0  0
 50 52  1  0  0  0  0
 50 51  1  0  0  0  0
 53 50  1  0  0  0  0
M  END
