1,2
 OpenBabel05122313053D

 15 15  0  0  1  0  0  0  0  0999 V2000
    1.9763    0.7415   -0.3868 N   0  0  0  0  0  0  0  0  0  0  0  0
    1.5135   -1.7614    0.0944 N   0  0  0  0  0  2  0  0  0  0  0  0
    1.2862   -2.7446    0.2801 H   0  0  0  0  0  0  0  0  0  0  0  0
    2.4059    2.0140   -0.5214 C   0  0  0  0  0  0  0  0  0  0  0  0
    1.7217    2.8146   -0.8294 H   0  0  0  0  0  0  0  0  0  0  0  0
    3.7869    2.0965   -0.1998 C   0  0  0  0  0  0  0  0  0  0  0  0
    4.3999    3.0053   -0.2237 H   0  0  0  0  0  0  0  0  0  0  0  0
    4.2044    0.7995    0.1512 C   0  0  0  0  0  0  0  0  0  0  0  0
    5.2081    0.4839    0.4606 H   0  0  0  0  0  0  0  0  0  0  0  0
    3.0584   -0.0285    0.0293 C   0  0  0  0  0  3  0  0  0  0  0  0
    2.7727   -1.4056    0.2815 C   0  0  1  0  0  3  0  0  0  0  0  0
    3.8307   -2.3729    0.7289 C   0  0  0  0  0  0  0  0  0  0  0  0
    3.4023   -3.3672    0.9606 H   0  0  0  0  0  0  0  0  0  0  0  0
    4.3523   -1.9939    1.6308 H   0  0  0  0  0  0  0  0  0  0  0  0
    4.6002   -2.4965   -0.0605 H   0  0  0  0  0  0  0  0  0  0  0  0
  1 10  1  0  0  0  0
  2  3  1  0  0  0  0
  4  1  2  0  0  0  0
  4  6  1  0  0  0  0
  5  4  1  0  0  0  0
  6  8  2  0  0  0  0
  7  6  1  0  0  0  0
  8  9  1  0  0  0  0
 10  8  1  0  0  0  0
 10 11  1  0  0  0  0
 11  2  1  1  0  0  0
 11 12  1  0  0  0  0
 12 13  1  0  0  0  0
 12 14  1  0  0  0  0
 15 12  1  0  0  0  0
M  END
