1,2
 OpenBabel05122313053D

 27 27  0  0  1  0  0  0  0  0999 V2000
    1.5186    1.3008    0.0822 N   0  0  0  0  0  2  0  0  0  0  0  0
   -0.9379    0.2881   -0.0045 N   0  0  0  0  0  2  0  0  0  0  0  0
   -3.3634    1.4063    1.0556 O   0  0  0  0  0  0  0  0  0  0  0  0
   -4.5327   -0.3194    0.1711 O   0  0  0  0  0  0  0  0  0  0  0  0
   -2.0445    0.5867   -2.5410 O   0  0  0  0  0  0  0  0  0  0  0  0
   -1.0634    0.5104   -2.6794 H   0  0  0  0  0  0  0  0  0  0  0  0
    2.7791    1.7827    0.0825 C   0  0  0  0  0  3  0  0  0  0  0  0
    3.5789    1.0404    0.2218 H   0  0  0  0  0  0  0  0  0  0  0  0
    3.0690    3.1395   -0.0945 C   0  0  0  0  0  0  0  0  0  0  0  0
    4.1154    3.4757   -0.0828 H   0  0  0  0  0  0  0  0  0  0  0  0
    2.0113    4.0462   -0.2879 C   0  0  0  0  0  0  0  0  0  0  0  0
    2.2090    5.1189   -0.4289 H   0  0  0  0  0  0  0  0  0  0  0  0
    0.7043    3.5538   -0.3093 C   0  0  0  0  0  0  0  0  0  0  0  0
   -0.1574    4.2162   -0.4752 H   0  0  0  0  0  0  0  0  0  0  0  0
    0.4846    2.1743   -0.1284 C   0  0  0  0  0  0  0  0  0  0  0  0
   -0.8349    1.5800   -0.1910 C   0  0  0  0  0  3  0  0  0  0  0  0
   -1.7052    2.2190   -0.3969 H   0  0  0  0  0  0  0  0  0  0  0  0
   -2.2157   -0.3380   -0.2489 C   0  0  1  0  0  0  0  0  0  0  0  0
   -2.2060   -1.3565    0.1900 H   0  0  0  0  0  0  0  0  0  0  0  0
   -3.4010    0.3823    0.3976 C   0  0  0  0  0  0  0  0  0  0  0  0
   -5.7279    0.2264    0.7480 C   0  0  0  0  0  0  0  0  0  0  0  0
   -5.6352    0.2934    1.8504 H   0  0  0  0  0  0  0  0  0  0  0  0
   -6.5435   -0.4633    0.4690 H   0  0  0  0  0  0  0  0  0  0  0  0
   -5.9254    1.2422    0.3512 H   0  0  0  0  0  0  0  0  0  0  0  0
   -2.3888   -0.5476   -1.8103 C   0  0  0  0  0  0  0  0  0  0  0  0
   -1.7594   -1.4217   -2.0804 H   0  0  0  0  0  0  0  0  0  0  0  0
   -3.4542   -0.7995   -1.9857 H   0  0  0  0  0  0  0  0  0  0  0  0
  1  7  1  0  0  0  0
  4 20  1  0  0  0  0
  4 21  1  0  0  0  0
  5 25  1  0  0  0  0
  6  5  1  0  0  0  0
  7  8  1  0  0  0  0
  9 10  1  0  0  0  0
  9  7  1  0  0  0  0
 11  9  2  0  0  0  0
 12 11  1  0  0  0  0
 13 11  1  0  0  0  0
 13 15  2  0  0  0  0
 14 13  1  0  0  0  0
 15  1  1  0  0  0  0
 16 15  1  0  0  0  0
 16  2  1  0  0  0  0
 17 16  1  0  0  0  0
 18  2  1  0  0  0  0
 18 19  1  1  0  0  0
 18 20  1  0  0  0  0
 20  3  2  0  0  0  0
 21 22  1  0  0  0  0
 23 21  1  0  0  0  0
 24 21  1  0  0  0  0
 25 18  1  0  0  0  0
 26 25  1  0  0  0  0
 27 25  1  0  0  0  0
M  END
