1,2
 OpenBabel05122313053D

 27 29  0  0  1  0  0  0  0  0999 V2000
   -1.1454    0.9433   -0.2770 N   0  0  0  0  0  2  0  0  0  0  0  0
    1.3899    0.8302   -1.3223 N   0  0  0  0  0  2  0  0  0  0  0  0
   -2.8077   -1.4422   -0.1004 N   0  0  0  0  0  0  0  0  0  0  0  0
    1.7605    2.9937   -0.6860 O   0  0  0  0  0  0  0  0  0  0  0  0
   -4.1837   -0.2219    1.2236 O   0  0  0  0  0  0  0  0  0  0  0  0
   -0.4972    2.1142   -0.5467 C   0  0  1  0  0  3  0  0  0  0  0  0
   -1.1256    3.3635   -0.4154 C   0  0  0  0  0  0  0  0  0  0  0  0
   -0.5418    4.2722   -0.6159 H   0  0  0  0  0  0  0  0  0  0  0  0
   -2.4685    3.4114   -0.0272 C   0  0  0  0  0  0  0  0  0  0  0  0
   -2.9863    4.3749    0.0837 H   0  0  0  0  0  0  0  0  0  0  0  0
   -3.1435    2.2074    0.2249 C   0  0  0  0  0  0  0  0  0  0  0  0
   -4.1927    2.1877    0.5478 H   0  0  0  0  0  0  0  0  0  0  0  0
   -2.4526    0.9923    0.0800 C   0  0  0  0  0  0  0  0  0  0  0  0
    0.9139    1.9606   -0.9012 C   0  0  2  0  0  3  0  0  0  0  0  0
    2.8471    0.9973   -1.3806 C   0  0  0  0  0  0  0  0  0  0  0  0
    3.1948    0.8554   -2.4263 H   0  0  0  0  0  0  0  0  0  0  0  0
    3.3342    0.2135   -0.7619 H   0  0  0  0  0  0  0  0  0  0  0  0
    3.1006    2.4278   -0.8321 C   0  0  0  0  0  0  0  0  0  0  0  0
    3.5605    2.4124    0.1777 H   0  0  0  0  0  0  0  0  0  0  0  0
    3.6793    3.0872   -1.5077 H   0  0  0  0  0  0  0  0  0  0  0  0
   -3.1328   -0.2830    0.3729 C   0  0  0  0  0  0  0  0  0  0  0  0
   -3.6936   -2.4295    0.5232 C   0  0  0  0  0  0  0  0  0  0  0  0
   -3.0901   -3.1006    1.1709 H   0  0  0  0  0  0  0  0  0  0  0  0
   -4.1741   -3.0634   -0.2496 H   0  0  0  0  0  0  0  0  0  0  0  0
   -4.7120   -1.5739    1.3202 C   0  0  0  0  0  0  0  0  0  0  0  0
   -5.7312   -1.5747    0.8816 H   0  0  0  0  0  0  0  0  0  0  0  0
   -4.7805   -1.8351    2.3934 H   0  0  0  0  0  0  0  0  0  0  0  0
  1 13  1  0  0  0  0
  3 21  2  0  0  0  0
  3 22  1  0  0  0  0
  5 25  1  0  0  0  0
  6  7  1  1  0  0  0
  6  1  1  0  0  0  0
  7  9  2  0  0  0  0
  8  7  1  0  0  0  0
  9 10  1  0  0  0  0
  9 11  1  0  0  0  0
 11 12  1  0  0  0  0
 13 11  2  0  0  0  0
 13 21  1  0  0  0  0
 14  2  1  1  0  0  0
 14  4  1  0  0  0  0
 14  6  1  0  0  0  0
 15  2  1  0  0  0  0
 15 18  1  0  0  0  0
 15 17  1  0  0  0  0
 16 15  1  0  0  0  0
 18  4  1  0  0  0  0
 18 19  1  0  0  0  0
 20 18  1  0  0  0  0
 21  5  1  0  0  0  0
 22 23  1  0  0  0  0
 22 25  1  0  0  0  0
 24 22  1  0  0  0  0
 25 27  1  0  0  0  0
 26 25  1  0  0  0  0
M  END
