1,2
 OpenBabel05122313053D

 36 38  0  0  1  0  0  0  0  0999 V2000
    0.6070   -0.9371    1.4699 N   0  0  0  0  0  2  0  0  0  0  0  0
    1.8081    1.5254    0.7477 N   0  0  0  0  0  2  0  0  0  0  0  0
   -1.6627    1.5558    0.3490 N   0  0  0  0  0  0  0  0  0  0  0  0
   -0.4601   -0.1360    1.7257 C   0  0  2  0  0  3  0  0  0  0  0  0
   -2.7799    0.8385    0.3187 N   0  0  0  0  0  0  0  0  0  0  0  0
   -2.8337   -0.0864    0.7731 H   0  0  0  0  0  0  0  0  0  0  0  0
   -0.5848    1.1330    0.9468 C   0  0  0  0  0  0  0  0  0  0  0  0
   -1.3831   -0.4702    2.7360 C   0  0  0  0  0  0  0  0  0  0  0  0
   -2.2103    0.2172    2.9678 H   0  0  0  0  0  0  0  0  0  0  0  0
    0.8027   -2.0589    2.1945 C   0  0  0  0  0  0  0  0  0  0  0  0
    1.7230   -2.6169    1.9655 H   0  0  0  0  0  0  0  0  0  0  0  0
   -1.2028   -1.6505    3.4712 C   0  0  0  0  0  0  0  0  0  0  0  0
   -1.9118   -1.9229    4.2671 H   0  0  0  0  0  0  0  0  0  0  0  0
   -0.0918   -2.4583    3.1944 C   0  0  0  0  0  0  0  0  0  0  0  0
    0.1000   -3.3831    3.7562 H   0  0  0  0  0  0  0  0  0  0  0  0
    0.4091    3.4461    1.1148 C   0  0  0  0  0  0  0  0  0  0  0  0
   -0.6070    3.8470    1.2294 H   0  0  0  0  0  0  0  0  0  0  0  0
    0.5755    2.0619    0.9297 C   0  0  1  0  0  3  0  0  0  0  0  0
    2.9081    2.3032    0.8312 C   0  0  0  0  0  0  0  0  0  0  0  0
    3.8687    1.7749    0.7313 H   0  0  0  0  0  0  0  0  0  0  0  0
   -3.6825    2.1395   -1.3558 O   0  0  0  0  0  0  0  0  0  0  0  0
    2.8140    3.6833    1.0381 C   0  0  0  0  0  0  0  0  0  0  0  0
    3.7306    4.2864    1.1004 H   0  0  0  0  0  0  0  0  0  0  0  0
   -5.0430    0.3593   -0.4837 C   0  0  0  0  0  0  0  0  0  0  0  0
   -3.8175    1.2170   -0.5751 C   0  0  0  0  0  0  0  0  0  0  0  0
    1.5423    4.2669    1.1549 C   0  0  0  0  0  0  0  0  0  0  0  0
    1.4354    5.3525    1.2970 H   0  0  0  0  0  0  0  0  0  0  0  0
   -5.9447    0.3967   -1.5637 C   0  0  0  0  0  0  0  0  0  0  0  0
   -5.7297    1.0431   -2.4269 H   0  0  0  0  0  0  0  0  0  0  0  0
   -7.3995   -1.1900   -0.4597 N   0  0  0  0  0  0  0  0  0  0  0  0
   -5.3625   -0.4580    0.6195 C   0  0  0  0  0  0  0  0  0  0  0  0
   -4.7335   -0.4997    1.5227 H   0  0  0  0  0  0  0  0  0  0  0  0
   -7.0989   -0.3979   -1.5022 C   0  0  0  0  0  0  0  0  0  0  0  0
   -7.8190   -0.3939   -2.3390 H   0  0  0  0  0  0  0  0  0  0  0  0
   -6.5503   -1.2068    0.5774 C   0  0  0  0  0  0  0  0  0  0  0  0
   -6.8289   -1.8487    1.4320 H   0  0  0  0  0  0  0  0  0  0  0  0
  1  4  1  0  0  0  0
  1 10  1  0  0  0  0
  2 19  1  0  0  0  0
  2 18  1  0  0  0  0
  3  7  2  0  0  0  0
  4  7  1  1  0  0  0
  4  8  1  0  0  0  0
  5  3  1  0  0  0  0
  5  6  1  0  0  0  0
  8  9  1  0  0  0  0
  8 12  2  0  0  0  0
 10 14  2  0  0  0  0
 11 10  1  0  0  0  0
 12 13  1  0  0  0  0
 14 12  1  0  0  0  0
 14 15  1  0  0  0  0
 16 26  2  0  0  0  0
 16 17  1  0  0  0  0
 18  7  1  1  0  0  0
 18 16  1  0  0  0  0
 19 22  2  0  0  0  0
 20 19  1  0  0  0  0
 21 25  2  0  0  0  0
 22 23  1  0  0  0  0
 22 26  1  0  0  0  0
 24 31  1  0  0  0  0
 25 24  1  0  0  0  0
 25  5  1  0  0  0  0
 26 27  1  0  0  0  0
 28 33  1  0  0  0  0
 28 24  2  0  0  0  0
 29 28  1  0  0  0  0
 30 35  1  0  0  0  0
 31 32  1  0  0  0  0
 33 30  2  0  0  0  0
 34 33  1  0  0  0  0
 35 31  2  0  0  0  0
 35 36  1  0  0  0  0
M  END
