6,8
 OpenBabel05122313053D

 31 32  0  0  0  0  0  0  0  0999 V2000
    2.3749    0.5173    2.2881 Cl  0  0  0  0  0  0  0  0  0  0  0  0
   -5.6814   -0.1154    0.3584 O   0  0  0  0  0  0  0  0  0  0  0  0
   -2.6497    3.2119   -0.5194 O   0  0  0  0  0  0  0  0  0  0  0  0
   -3.4535   -0.6840    0.3361 N   0  0  0  0  0  0  0  0  0  0  0  0
   -4.1637    1.5520   -0.0978 N   0  0  0  0  0  0  0  0  0  0  0  0
   -1.2061   -1.3013    0.3097 N   0  0  0  0  0  2  0  0  0  0  0  0
   -0.5438    1.5196   -0.1453 N   0  0  0  0  0  2  0  0  0  0  0  0
    0.5664    0.9019   -0.1118 N   0  0  0  0  0  2  0  0  0  0  0  0
   -3.8212   -2.0618    0.6564 C   0  0  0  0  0  0  0  0  0  0  0  0
   -4.5239    0.2470    0.2078 C   0  0  0  0  0  0  0  0  0  0  0  0
   -5.2306    2.5425   -0.2552 C   0  0  0  0  0  0  0  0  0  0  0  0
   -2.8415    2.0344   -0.2610 C   0  0  0  0  0  0  0  0  0  0  0  0
   -1.7769    1.0178   -0.1055 C   0  0  0  0  0  0  0  0  0  0  0  0
   -2.1204   -0.3639    0.1701 C   0  0  0  0  0  0  0  0  0  0  0  0
    1.7440    1.7168   -0.0930 C   0  0  0  0  0  0  0  0  0  0  0  0
    2.6741    1.6045    0.9614 C   0  0  0  0  0  0  0  0  0  0  0  0
    3.8321    2.3944    0.9620 C   0  0  0  0  0  0  0  0  0  0  0  0
    4.0565    3.3014   -0.0831 C   0  0  0  0  0  0  0  0  0  0  0  0
    3.1226    3.4306   -1.1237 C   0  0  0  0  0  0  0  0  0  0  0  0
    1.9694    2.6382   -1.1285 C   0  0  0  0  0  0  0  0  0  0  0  0
   -1.4930   -2.2739    0.4663 H   0  0  0  0  0  0  0  0  0  0  0  0
    4.5452    2.2920    1.7915 H   0  0  0  0  0  0  0  0  0  0  0  0
    4.9692    3.9154   -0.0779 H   0  0  0  0  0  0  0  0  0  0  0  0
    3.2947    4.1475   -1.9395 H   0  0  0  0  0  0  0  0  0  0  0  0
    1.2218    2.7156   -1.9303 H   0  0  0  0  0  0  0  0  0  0  0  0
   -4.9204   -2.0951    0.7388 H   0  0  0  0  0  0  0  0  0  0  0  0
   -3.4921   -2.7521   -0.1476 H   0  0  0  0  0  0  0  0  0  0  0  0
   -3.3691   -2.3730    1.6204 H   0  0  0  0  0  0  0  0  0  0  0  0
   -6.1968    2.0263   -0.1368 H   0  0  0  0  0  0  0  0  0  0  0  0
   -5.1189    3.3395    0.5047 H   0  0  0  0  0  0  0  0  0  0  0  0
   -5.1543    3.0143   -1.2530 H   0  0  0  0  0  0  0  0  0  0  0  0
  3 12  2  0  0  0  0
  4  9  1  0  0  0  0
  5 10  1  0  0  0  0
  6 21  1  0  0  0  0
  7  8  1  0  0  0  0
  7 13  1  0  0  0  0
  8 15  1  0  0  0  0
  9 26  1  0  0  0  0
  9 28  1  0  0  0  0
 10  4  1  0  0  0  0
 10  2  2  0  0  0  0
 11 29  1  0  0  0  0
 11  5  1  0  0  0  0
 11 30  1  0  0  0  0
 12 13  1  0  0  0  0
 12  5  1  0  0  0  0
 13 14  2  0  0  0  0
 14  6  1  0  0  0  0
 14  4  1  0  0  0  0
 15 16  1  0  0  0  0
 16 17  2  0  0  0  0
 16  1  1  0  0  0  0
 17 22  1  0  0  0  0
 18 23  1  0  0  0  0
 18 17  1  0  0  0  0
 19 18  2  0  0  0  0
 20 19  1  0  0  0  0
 20 15  2  0  0  0  0
 24 19  1  0  0  0  0
 25 20  1  0  0  0  0
 27  9  1  0  0  0  0
 31 11  1  0  0  0  0
M  END
