1,12
 OpenBabel05122313053D

 26 28  0  0  0  0  0  0  0  0999 V2000
    0.5219   -2.0309   -1.2212 N   0  0  0  0  0  2  0  0  0  0  0  0
    1.5415   -2.7747   -1.6986 C   0  0  0  0  0  3  0  0  0  0  0  0
    2.5490   -2.3576   -1.5446 H   0  0  0  0  0  0  0  0  0  0  0  0
    1.3378   -3.9939   -2.3521 C   0  0  0  0  0  0  0  0  0  0  0  0
    2.2008   -4.5625   -2.7255 H   0  0  0  0  0  0  0  0  0  0  0  0
    0.0201   -4.4636   -2.5138 C   0  0  0  0  0  0  0  0  0  0  0  0
   -0.1721   -5.4197   -3.0237 H   0  0  0  0  0  0  0  0  0  0  0  0
   -1.0406   -3.7044   -2.0175 C   0  0  0  0  0  0  0  0  0  0  0  0
   -2.0909   -4.0152   -2.1055 H   0  0  0  0  0  0  0  0  0  0  0  0
   -0.7639   -2.4837   -1.3682 C   0  0  0  0  0  0  0  0  0  0  0  0
   -1.7822   -1.6227   -0.8070 C   0  0  0  0  0  0  0  0  0  0  0  0
   -1.3852   -0.4792   -0.1700 N   0  0  0  0  0  2  0  0  0  0  0  0
   -2.4729    0.1453    0.2841 N   0  0  0  0  0  0  0  0  0  0  0  0
   -3.5068   -0.6612   -0.1060 C   0  0  0  0  0  0  0  0  0  0  0  0
   -3.1169   -1.7726   -0.7849 N   0  0  0  0  0  0  0  0  0  0  0  0
   -4.9082   -0.3345    0.1958 C   0  0  0  0  0  0  0  0  0  0  0  0
   -5.8680   -1.3357    0.4757 C   0  0  0  0  0  0  0  0  0  0  0  0
   -5.4829   -2.6209    0.4955 F   0  0  0  0  0  0  0  0  0  0  0  0
   -7.2072   -1.0458    0.7594 C   0  0  0  0  0  0  0  0  0  0  0  0
   -7.8933   -1.8770    0.9728 H   0  0  0  0  0  0  0  0  0  0  0  0
   -7.6279    0.2913    0.7737 C   0  0  0  0  0  0  0  0  0  0  0  0
   -8.6774    0.5330    0.9971 H   0  0  0  0  0  0  0  0  0  0  0  0
   -6.7164    1.3215    0.5045 C   0  0  0  0  0  0  0  0  0  0  0  0
   -7.0141    2.3790    0.5002 H   0  0  0  0  0  0  0  0  0  0  0  0
   -5.3848    0.9980    0.2202 C   0  0  0  0  0  0  0  0  0  0  0  0
   -4.5395    1.9995   -0.0618 F   0  0  0  0  0  0  0  0  0  0  0  0
  2  3  1  0  0  0  0
  2  1  1  0  0  0  0
  4  2  1  0  0  0  0
  5  4  1  0  0  0  0
  6  4  2  0  0  0  0
  6  8  1  0  0  0  0
  7  6  1  0  0  0  0
  8 10  2  0  0  0  0
  9  8  1  0  0  0  0
 10  1  1  0  0  0  0
 10 11  1  0  0  0  0
 11 15  2  0  0  0  0
 11 12  1  0  0  0  0
 12 13  1  0  0  0  0
 14 16  1  0  0  0  0
 14 13  2  0  0  0  0
 15 14  1  0  0  0  0
 16 25  2  0  0  0  0
 16 17  1  0  0  0  0
 17 18  1  0  0  0  0
 17 19  2  0  0  0  0
 19 21  1  0  0  0  0
 19 20  1  0  0  0  0
 21 22  1  0  0  0  0
 23 21  2  0  0  0  0
 24 23  1  0  0  0  0
 25 23  1  0  0  0  0
 26 25  1  0  0  0  0
M  END
