3,4
 OpenBabel05122313053D

 44 47  0  0  1  0  0  0  0  0999 V2000
    1.7158   -3.3072    0.8615 O   0  0  0  0  0  0  0  0  0  0  0  0
   -1.2194   -3.5753    0.0337 O   0  0  0  0  0  0  0  0  0  0  0  0
    1.3794   -1.1106    0.3879 N   0  0  0  0  0  2  0  0  0  0  0  0
   -1.0594   -1.3333   -0.2767 N   0  0  0  0  0  2  0  0  0  0  0  0
    2.8332   -1.2243    0.6353 C   0  0  2  0  0  0  0  0  0  0  0  0
    3.1655   -0.4059    1.3035 H   0  0  0  0  0  0  0  0  0  0  0  0
    3.6118   -1.1806   -0.6987 C   0  0  0  0  0  0  0  0  0  0  0  0
    3.2297   -0.3341   -1.3029 H   0  0  0  0  0  0  0  0  0  0  0  0
    3.3490   -2.0848   -1.2849 H   0  0  0  0  0  0  0  0  0  0  0  0
    5.1036   -1.1047   -0.4776 C   0  0  0  0  0  0  0  0  0  0  0  0
    5.6920    0.0604    0.0598 C   0  0  0  0  0  0  0  0  0  0  0  0
    5.0609    0.9336    0.2946 H   0  0  0  0  0  0  0  0  0  0  0  0
    7.0726    0.1260    0.2940 C   0  0  0  0  0  0  0  0  0  0  0  0
    7.5158    1.0445    0.7077 H   0  0  0  0  0  0  0  0  0  0  0  0
    7.8905   -0.9769   -0.0028 C   0  0  0  0  0  0  0  0  0  0  0  0
    8.9743   -0.9257    0.1790 H   0  0  0  0  0  0  0  0  0  0  0  0
    7.3189   -2.1414   -0.5362 C   0  0  0  0  0  0  0  0  0  0  0  0
    7.9533   -3.0076   -0.7769 H   0  0  0  0  0  0  0  0  0  0  0  0
    5.9357   -2.2037   -0.7694 C   0  0  0  0  0  0  0  0  0  0  0  0
    5.4943   -3.1164   -1.2011 H   0  0  0  0  0  0  0  0  0  0  0  0
    2.9193   -2.6038    1.3251 C   0  0  0  0  0  0  0  0  0  0  0  0
    3.8028   -3.1981    1.0286 H   0  0  0  0  0  0  0  0  0  0  0  0
    2.8608   -2.5459    2.4319 H   0  0  0  0  0  0  0  0  0  0  0  0
    0.9025   -2.3353    0.4476 C   0  0  0  0  0  0  0  0  0  0  0  0
   -0.4839   -2.4658    0.0551 C   0  0  0  0  0  0  0  0  0  0  0  0
   -2.5024   -3.1701   -0.5542 C   0  0  0  0  0  0  0  0  0  0  0  0
   -3.3123   -3.6077    0.0588 H   0  0  0  0  0  0  0  0  0  0  0  0
   -2.5436   -3.5960   -1.5758 H   0  0  0  0  0  0  0  0  0  0  0  0
   -2.4786   -1.6171   -0.5451 C   0  0  1  0  0  0  0  0  0  0  0  0
   -2.7423   -1.2135   -1.5434 H   0  0  0  0  0  0  0  0  0  0  0  0
   -3.3823   -0.9553    0.5181 C   0  0  0  0  0  0  0  0  0  0  0  0
   -3.1321   -1.3811    1.5120 H   0  0  0  0  0  0  0  0  0  0  0  0
   -3.1180    0.1211    0.5514 H   0  0  0  0  0  0  0  0  0  0  0  0
   -4.8498   -1.1365    0.2122 C   0  0  0  0  0  0  0  0  0  0  0  0
   -5.4675   -0.3572   -0.7886 C   0  0  0  0  0  0  0  0  0  0  0  0
   -4.8839    0.4215   -1.3068 H   0  0  0  0  0  0  0  0  0  0  0  0
   -6.8156   -0.5532   -1.1192 C   0  0  0  0  0  0  0  0  0  0  0  0
   -7.2850    0.0658   -1.8986 H   0  0  0  0  0  0  0  0  0  0  0  0
   -7.5690   -1.5339   -0.4528 C   0  0  0  0  0  0  0  0  0  0  0  0
   -8.6275   -1.6870   -0.7107 H   0  0  0  0  0  0  0  0  0  0  0  0
   -6.9680   -2.3116    0.5480 C   0  0  0  0  0  0  0  0  0  0  0  0
   -7.5545   -3.0753    1.0806 H   0  0  0  0  0  0  0  0  0  0  0  0
   -5.6174   -2.1137    0.8766 C   0  0  0  0  0  0  0  0  0  0  0  0
   -5.1559   -2.7182    1.6744 H   0  0  0  0  0  0  0  0  0  0  0  0
  1 21  1  0  0  0  0
  2 25  1  0  0  0  0
  3 24  1  0  0  0  0
  3  5  1  0  0  0  0
  4 25  1  0  0  0  0
  5  6  1  1  0  0  0
  5 21  1  0  0  0  0
  7 10  1  0  0  0  0
  7  5  1  0  0  0  0
  8  7  1  0  0  0  0
  9  7  1  0  0  0  0
 10 11  1  0  0  0  0
 11 13  2  0  0  0  0
 11 12  1  0  0  0  0
 13 14  1  0  0  0  0
 15 16  1  0  0  0  0
 15 13  1  0  0  0  0
 17 15  2  0  0  0  0
 18 17  1  0  0  0  0
 19 17  1  0  0  0  0
 19 10  2  0  0  0  0
 20 19  1  0  0  0  0
 21 23  1  0  0  0  0
 22 21  1  0  0  0  0
 24  1  1  0  0  0  0
 25 24  2  0  0  0  0
 26 29  1  0  0  0  0
 26  2  1  0  0  0  0
 26 27  1  0  0  0  0
 28 26  1  0  0  0  0
 29 30  1  6  0  0  0
 29  4  1  0  0  0  0
 29 31  1  0  0  0  0
 31 33  1  0  0  0  0
 31 32  1  0  0  0  0
 34 31  1  0  0  0  0
 34 43  1  0  0  0  0
 35 34  2  0  0  0  0
 36 35  1  0  0  0  0
 37 35  1  0  0  0  0
 37 39  2  0  0  0  0
 38 37  1  0  0  0  0
 39 41  1  0  0  0  0
 40 39  1  0  0  0  0
 41 43  2  0  0  0  0
 41 42  1  0  0  0  0
 43 44  1  0  0  0  0
M  END
