1,4
 OpenBabel05122313053D

 31 32  0  0  1  0  0  0  0  0999 V2000
   -0.4926    0.6969   -0.5619 N   0  0  0  0  0  2  0  0  0  0  0  0
   -2.6884    1.5903    0.0858 N   0  0  0  0  0  0  0  0  0  0  0  0
   -2.5324   -0.4332   -0.8729 N   0  0  0  0  0  0  0  0  0  0  0  0
    2.0965    0.2784    0.1990 N   0  0  0  0  0  2  0  0  0  0  0  0
   -1.8029    0.6617   -0.4627 C   0  0  0  0  0  3  0  0  0  0  0  0
   -2.5753    3.0342   -0.0011 C   0  0  0  0  0  0  0  0  0  0  0  0
   -1.5867    3.3977    0.3185 H   0  0  0  0  0  0  0  0  0  0  0  0
   -3.3237    3.4831    0.6815 H   0  0  0  0  0  0  0  0  0  0  0  0
   -2.7822    3.4156   -1.0303 H   0  0  0  0  0  0  0  0  0  0  0  0
   -4.0543    1.0722   -0.0263 C   0  0  0  0  0  0  0  0  0  0  0  0
   -4.5674    1.5146   -0.9153 H   0  0  0  0  0  0  0  0  0  0  0  0
   -4.6462    1.3212    0.8773 H   0  0  0  0  0  0  0  0  0  0  0  0
   -3.8260   -0.4254   -0.2053 C   0  0  0  0  0  0  0  0  0  0  0  0
   -3.7496   -0.9486    0.7769 H   0  0  0  0  0  0  0  0  0  0  0  0
   -4.6043   -0.9172   -0.8219 H   0  0  0  0  0  0  0  0  0  0  0  0
   -1.9487   -1.6911   -1.2820 C   0  0  0  0  0  0  0  0  0  0  0  0
   -1.0257   -1.5168   -1.8654 H   0  0  0  0  0  0  0  0  0  0  0  0
   -2.6721   -2.2273   -1.9289 H   0  0  0  0  0  0  0  0  0  0  0  0
   -1.6989   -2.3368   -0.4099 H   0  0  0  0  0  0  0  0  0  0  0  0
    0.2592    1.8390   -0.0843 C   0  0  0  0  0  0  0  0  0  0  0  0
   -0.0265    2.0954    0.9679 H   0  0  0  0  0  0  0  0  0  0  0  0
    0.1043    2.7570   -0.6945 H   0  0  0  0  0  0  0  0  0  0  0  0
    1.7474    1.5494   -0.0663 C   0  0  1  0  0  3  0  0  0  0  0  0
    2.7258    2.5340   -0.2828 C   0  0  0  0  0  0  0  0  0  0  0  0
    2.4253    3.5675   -0.5106 H   0  0  0  0  0  0  0  0  0  0  0  0
    4.0775    2.1705   -0.2180 C   0  0  0  0  0  0  0  0  0  0  0  0
    4.8619    2.9241   -0.3859 H   0  0  0  0  0  0  0  0  0  0  0  0
    4.4196    0.8329    0.0374 C   0  0  0  0  0  0  0  0  0  0  0  0
    5.4687    0.5068    0.0734 H   0  0  0  0  0  0  0  0  0  0  0  0
    3.3884   -0.0924    0.2296 C   0  0  0  0  0  0  0  0  0  0  0  0
    3.5684   -1.1695    0.3804 H   0  0  0  0  0  0  0  0  0  0  0  0
  1  5  1  0  0  0  0
  1 20  1  0  0  0  0
  3  5  1  0  0  0  0
  3 13  1  0  0  0  0
  4 30  1  0  0  0  0
  5  2  1  0  0  0  0
  6  2  1  0  0  0  0
  6  7  1  0  0  0  0
  6  8  1  0  0  0  0
  9  6  1  0  0  0  0
 10  2  1  0  0  0  0
 10 12  1  0  0  0  0
 11 10  1  0  0  0  0
 13 10  1  0  0  0  0
 13 14  1  0  0  0  0
 15 13  1  0  0  0  0
 16  3  1  0  0  0  0
 16 19  1  0  0  0  0
 17 16  1  0  0  0  0
 18 16  1  0  0  0  0
 20 21  1  0  0  0  0
 22 20  1  0  0  0  0
 23 20  1  1  0  0  0
 23  4  1  0  0  0  0
 24 26  2  0  0  0  0
 24 23  1  0  0  0  0
 25 24  1  0  0  0  0
 26 28  1  0  0  0  0
 27 26  1  0  0  0  0
 28 29  1  0  0  0  0
 28 30  2  0  0  0  0
 30 31  1  0  0  0  0
M  END
