1,3
 OpenBabel05122313053D

 21 22  0  0  0  0  0  0  0  0999 V2000
   -1.4556    0.6686    0.2037 N   0  0  0  0  0  2  0  0  0  0  0  0
   -0.0000    2.4280   -0.6248 N   0  0  0  0  0  0  0  0  0  0  0  0
    1.4556    0.6686    0.2038 N   0  0  0  0  0  2  0  0  0  0  0  0
   -2.6828    0.3250    0.6885 C   0  0  0  0  0  3  0  0  0  0  0  0
   -2.7777   -0.7019    1.0666 H   0  0  0  0  0  0  0  0  0  0  0  0
   -3.7597    1.1949    0.6490 C   0  0  0  0  0  0  0  0  0  0  0  0
   -4.7281    0.8731    1.0542 H   0  0  0  0  0  0  0  0  0  0  0  0
   -3.5774    2.4636    0.0476 C   0  0  0  0  0  0  0  0  0  0  0  0
   -4.4197    3.1668   -0.0378 H   0  0  0  0  0  0  0  0  0  0  0  0
   -2.3266    2.8186   -0.4200 C   0  0  0  0  0  0  0  0  0  0  0  0
   -2.1136    3.7994   -0.8652 H   0  0  0  0  0  0  0  0  0  0  0  0
   -1.1990    1.9376   -0.2933 C   0  0  0  0  0  0  0  0  0  0  0  0
    1.1990    1.9377   -0.2933 C   0  0  0  0  0  0  0  0  0  0  0  0
    2.3266    2.8187   -0.4200 C   0  0  0  0  0  0  0  0  0  0  0  0
    2.1136    3.7995   -0.8652 H   0  0  0  0  0  0  0  0  0  0  0  0
    3.5774    2.4636    0.0477 C   0  0  0  0  0  0  0  0  0  0  0  0
    4.4197    3.1669   -0.0377 H   0  0  0  0  0  0  0  0  0  0  0  0
    3.7597    1.1950    0.6490 C   0  0  0  0  0  0  0  0  0  0  0  0
    4.7281    0.8731    1.0542 H   0  0  0  0  0  0  0  0  0  0  0  0
    2.6828    0.3250    0.6885 C   0  0  0  0  0  0  0  0  0  0  0  0
    2.7777   -0.7019    1.0666 H   0  0  0  0  0  0  0  0  0  0  0  0
  1  4  1  0  0  0  0
  2 12  1  0  0  0  0
  2 13  2  0  0  0  0
  3 20  1  0  0  0  0
  4  5  1  0  0  0  0
  6  4  1  0  0  0  0
  6  7  1  0  0  0  0
  8  6  2  0  0  0  0
  9  8  1  0  0  0  0
 10 12  2  0  0  0  0
 10  8  1  0  0  0  0
 11 10  1  0  0  0  0
 12  1  1  0  0  0  0
 13  3  1  0  0  0  0
 14 13  1  0  0  0  0
 14 16  2  0  0  0  0
 15 14  1  0  0  0  0
 16 18  1  0  0  0  0
 17 16  1  0  0  0  0
 18 20  2  0  0  0  0
 18 19  1  0  0  0  0
 20 21  1  0  0  0  0
M  END
