1,16
 OpenBabel05122313053D

 41 45  0  0  1  0  0  0  0  0999 V2000
    0.7642   -0.5313   -0.2578 N   0  0  0  0  0  2  0  0  0  0  0  0
    1.8932   -0.0231    0.1695 N   0  0  0  0  0  2  0  0  0  0  0  0
    2.8743   -0.7889   -0.3393 N   0  0  0  0  0  0  0  0  0  0  0  0
    2.3751   -1.8009   -1.1027 C   0  0  0  0  0  0  0  0  0  0  0  0
    3.0082   -2.5330   -1.6081 H   0  0  0  0  0  0  0  0  0  0  0  0
    0.9917   -1.6332   -1.0511 C   0  0  0  0  0  0  0  0  0  0  0  0
   -0.1613   -2.3310   -1.6113 C   0  0  1  0  0  3  0  0  0  0  0  0
   -0.0772   -3.5000   -2.3881 C   0  0  0  0  0  0  0  0  0  0  0  0
    0.9046   -3.9412   -2.6109 H   0  0  0  0  0  0  0  0  0  0  0  0
   -1.2549   -4.0888   -2.8625 C   0  0  0  0  0  0  0  0  0  0  0  0
   -1.2117   -5.0039   -3.4710 H   0  0  0  0  0  0  0  0  0  0  0  0
   -2.4875   -3.4959   -2.5457 C   0  0  0  0  0  0  0  0  0  0  0  0
   -3.4364   -3.9271   -2.8942 H   0  0  0  0  0  0  0  0  0  0  0  0
   -2.4989   -2.3317   -1.7693 C   0  0  0  0  0  0  0  0  0  0  0  0
   -3.4356   -1.8228   -1.4921 H   0  0  0  0  0  0  0  0  0  0  0  0
   -1.3661   -1.7550   -1.3151 N   0  0  0  0  0  2  0  0  0  0  0  0
    4.2852   -0.4541   -0.0102 C   0  0  1  0  0  0  0  0  0  0  0  0
    4.4710   -0.5367    1.5221 C   0  0  0  0  0  0  0  0  0  0  0  0
    4.2292   -1.5656    1.8652 H   0  0  0  0  0  0  0  0  0  0  0  0
    3.7581    0.1574    2.0112 H   0  0  0  0  0  0  0  0  0  0  0  0
    5.9254   -0.1723    1.8756 C   0  0  1  0  0  0  0  0  0  0  0  0
    6.0487   -0.2334    2.9766 H   0  0  0  0  0  0  0  0  0  0  0  0
    6.8829   -1.1618    1.1854 C   0  0  0  0  0  0  0  0  0  0  0  0
    7.9340   -0.9231    1.4491 H   0  0  0  0  0  0  0  0  0  0  0  0
    6.6901   -2.1966    1.5410 H   0  0  0  0  0  0  0  0  0  0  0  0
    6.6946   -1.0774   -0.3415 C   0  0  1  0  0  0  0  0  0  0  0  0
    7.3717   -1.7973   -0.8454 H   0  0  0  0  0  0  0  0  0  0  0  0
    5.2388   -1.4439   -0.7009 C   0  0  0  0  0  0  0  0  0  0  0  0
    5.0197   -2.4812   -0.3677 H   0  0  0  0  0  0  0  0  0  0  0  0
    5.1003   -1.4014   -1.8027 H   0  0  0  0  0  0  0  0  0  0  0  0
    4.5863    0.9827   -0.4943 C   0  0  0  0  0  0  0  0  0  0  0  0
    3.8726    1.6834   -0.0160 H   0  0  0  0  0  0  0  0  0  0  0  0
    4.4275    1.0400   -1.5923 H   0  0  0  0  0  0  0  0  0  0  0  0
    6.2233    1.2615    1.3949 C   0  0  0  0  0  0  0  0  0  0  0  0
    5.5482    1.9838    1.9008 H   0  0  0  0  0  0  0  0  0  0  0  0
    7.2609    1.5449    1.6681 H   0  0  0  0  0  0  0  0  0  0  0  0
    6.9980    0.3537   -0.8249 C   0  0  0  0  0  0  0  0  0  0  0  0
    6.8883    0.4193   -1.9286 H   0  0  0  0  0  0  0  0  0  0  0  0
    8.0509    0.6149   -0.5914 H   0  0  0  0  0  0  0  0  0  0  0  0
    6.0403    1.3421   -0.1332 C   0  0  1  0  0  0  0  0  0  0  0  0
    6.2470    2.3746   -0.4828 H   0  0  0  0  0  0  0  0  0  0  0  0
  1  2  1  0  0  0  0
  3  2  1  0  0  0  0
  4  6  2  0  0  0  0
  4  3  1  0  0  0  0
  5  4  1  0  0  0  0
  6  1  1  0  0  0  0
  7 16  1  0  0  0  0
  7  6  1  1  0  0  0
  8  7  1  0  0  0  0
  9  8  1  0  0  0  0
 10 12  1  0  0  0  0
 10  8  2  0  0  0  0
 11 10  1  0  0  0  0
 12 14  2  0  0  0  0
 13 12  1  0  0  0  0
 14 15  1  0  0  0  0
 14 16  1  0  0  0  0
 17  3  1  6  0  0  0
 17 18  1  0  0  0  0
 18 19  1  0  0  0  0
 18 21  1  0  0  0  0
 18 20  1  0  0  0  0
 21 22  1  1  0  0  0
 23 24  1  0  0  0  0
 23 25  1  0  0  0  0
 23 21  1  0  0  0  0
 26 27  1  6  0  0  0
 26 23  1  0  0  0  0
 28 29  1  0  0  0  0
 28 26  1  0  0  0  0
 28 17  1  0  0  0  0
 30 28  1  0  0  0  0
 31 40  1  0  0  0  0
 31 32  1  0  0  0  0
 31 17  1  0  0  0  0
 33 31  1  0  0  0  0
 34 36  1  0  0  0  0
 34 21  1  0  0  0  0
 34 35  1  0  0  0  0
 37 39  1  0  0  0  0
 37 26  1  0  0  0  0
 37 40  1  0  0  0  0
 38 37  1  0  0  0  0
 40 41  1  6  0  0  0
 40 34  1  0  0  0  0
M  END
