1,10
 OpenBabel05122313053D

 60 65  0  0  1  0  0  0  0  0999 V2000
    1.2791   -0.1144    0.1208 N   0  0  0  0  0  2  0  0  0  0  0  0
    2.7247   -0.2819   -0.0423 C   0  0  2  0  0  0  0  0  0  0  0  0
    3.2437    0.4036    0.6585 H   0  0  0  0  0  0  0  0  0  0  0  0
    2.9620    0.1401   -1.5420 C   0  0  1  0  0  0  0  0  0  0  0  0
    3.6802   -0.5515   -2.0233 H   0  0  0  0  0  0  0  0  0  0  0  0
    1.6047   -0.0793   -2.1233 N   0  0  0  0  0  0  0  0  0  0  0  0
    1.3727    0.4325   -2.9790 H   0  0  0  0  0  0  0  0  0  0  0  0
    0.7275   -0.0408   -1.0728 C   0  0  0  0  0  0  0  0  0  0  0  0
   -0.7272    0.0406   -1.0728 C   0  0  0  0  0  0  0  0  0  0  0  0
   -1.2788    0.1144    0.1208 N   0  0  0  0  0  2  0  0  0  0  0  0
   -2.7244    0.2817   -0.0422 C   0  0  2  0  0  0  0  0  0  0  0  0
   -3.2434   -0.4038    0.6584 H   0  0  0  0  0  0  0  0  0  0  0  0
   -2.9617   -0.1402   -1.5420 C   0  0  1  0  0  0  0  0  0  0  0  0
   -3.6798    0.5516   -2.0233 H   0  0  0  0  0  0  0  0  0  0  0  0
   -1.6044    0.0790   -2.1233 N   0  0  0  0  0  0  0  0  0  0  0  0
   -1.3725   -0.4329   -2.9789 H   0  0  0  0  0  0  0  0  0  0  0  0
    3.1903   -1.7035    0.2471 C   0  0  0  0  0  0  0  0  0  0  0  0
    2.2970   -2.7385    0.5698 C   0  0  0  0  0  0  0  0  0  0  0  0
    1.2226   -2.5207    0.6564 H   0  0  0  0  0  0  0  0  0  0  0  0
    2.7760   -4.0348    0.8143 C   0  0  0  0  0  0  0  0  0  0  0  0
    2.0664   -4.8344    1.0758 H   0  0  0  0  0  0  0  0  0  0  0  0
    4.1494   -4.3094    0.7412 C   0  0  0  0  0  0  0  0  0  0  0  0
    4.5227   -5.3257    0.9386 H   0  0  0  0  0  0  0  0  0  0  0  0
    5.0479   -3.2766    0.4269 C   0  0  0  0  0  0  0  0  0  0  0  0
    6.1288   -3.4784    0.3803 H   0  0  0  0  0  0  0  0  0  0  0  0
    4.5701   -1.9815    0.1849 C   0  0  0  0  0  0  0  0  0  0  0  0
    5.2811   -1.1710   -0.0448 H   0  0  0  0  0  0  0  0  0  0  0  0
    3.4173    1.5719   -1.7390 C   0  0  0  0  0  0  0  0  0  0  0  0
    4.4058    1.8673   -2.6972 C   0  0  0  0  0  0  0  0  0  0  0  0
    4.8636    1.0464   -3.2725 H   0  0  0  0  0  0  0  0  0  0  0  0
    4.8166    3.1913   -2.9178 C   0  0  0  0  0  0  0  0  0  0  0  0
    5.5942    3.4066   -3.6662 H   0  0  0  0  0  0  0  0  0  0  0  0
    4.2402    4.2354   -2.1792 C   0  0  0  0  0  0  0  0  0  0  0  0
    4.5630    5.2740   -2.3467 H   0  0  0  0  0  0  0  0  0  0  0  0
    3.2562    3.9504   -1.2174 C   0  0  0  0  0  0  0  0  0  0  0  0
    2.8095    4.7644   -0.6268 H   0  0  0  0  0  0  0  0  0  0  0  0
    2.8472    2.6287   -0.9949 C   0  0  0  0  0  0  0  0  0  0  0  0
    2.0866    2.4166   -0.2270 H   0  0  0  0  0  0  0  0  0  0  0  0
   -3.1901    1.7033    0.2472 C   0  0  0  0  0  0  0  0  0  0  0  0
   -4.5700    1.9811    0.1854 C   0  0  0  0  0  0  0  0  0  0  0  0
   -5.2809    1.1705   -0.0441 H   0  0  0  0  0  0  0  0  0  0  0  0
   -5.0478    3.2761    0.4275 C   0  0  0  0  0  0  0  0  0  0  0  0
   -6.1288    3.4778    0.3811 H   0  0  0  0  0  0  0  0  0  0  0  0
   -4.1494    4.3091    0.7414 C   0  0  0  0  0  0  0  0  0  0  0  0
   -4.5228    5.3253    0.9389 H   0  0  0  0  0  0  0  0  0  0  0  0
   -2.7760    4.0347    0.8142 C   0  0  0  0  0  0  0  0  0  0  0  0
   -2.0664    4.8343    1.0755 H   0  0  0  0  0  0  0  0  0  0  0  0
   -2.2968    2.7385    0.5696 C   0  0  0  0  0  0  0  0  0  0  0  0
   -1.2225    2.5208    0.6560 H   0  0  0  0  0  0  0  0  0  0  0  0
   -3.4174   -1.5718   -1.7390 C   0  0  0  0  0  0  0  0  0  0  0  0
   -2.8469   -2.6288   -0.9956 C   0  0  0  0  0  0  0  0  0  0  0  0
   -2.0854   -2.4170   -0.2284 H   0  0  0  0  0  0  0  0  0  0  0  0
   -3.2563   -3.9505   -1.2178 C   0  0  0  0  0  0  0  0  0  0  0  0
   -2.8092   -4.7647   -0.6279 H   0  0  0  0  0  0  0  0  0  0  0  0
   -4.2413   -4.2351   -2.1787 C   0  0  0  0  0  0  0  0  0  0  0  0
   -4.5646   -5.2736   -2.3461 H   0  0  0  0  0  0  0  0  0  0  0  0
   -4.8183   -3.1908   -2.9166 C   0  0  0  0  0  0  0  0  0  0  0  0
   -5.5967   -3.4058   -3.6643 H   0  0  0  0  0  0  0  0  0  0  0  0
   -4.4070   -1.8669   -2.6962 C   0  0  0  0  0  0  0  0  0  0  0  0
   -4.8651   -1.0458   -3.2710 H   0  0  0  0  0  0  0  0  0  0  0  0
  2  1  1  0  0  0  0
  2 17  1  0  0  0  0
  2  3  1  1  0  0  0
  4  5  1  6  0  0  0
  4  2  1  0  0  0  0
  6  4  1  0  0  0  0
  6  8  1  0  0  0  0
  7  6  1  0  0  0  0
  8  9  2  0  0  0  0
  8  1  1  0  0  0  0
  9 10  1  0  0  0  0
 11 10  1  0  0  0  0
 11 39  1  0  0  0  0
 11 12  1  1  0  0  0
 13 14  1  6  0  0  0
 13 11  1  0  0  0  0
 15 13  1  0  0  0  0
 15  9  1  0  0  0  0
 16 15  1  0  0  0  0
 17 18  1  0  0  0  0
 18 19  1  0  0  0  0
 18 20  2  0  0  0  0
 20 21  1  0  0  0  0
 22 20  1  0  0  0  0
 22 23  1  0  0  0  0
 24 22  2  0  0  0  0
 25 24  1  0  0  0  0
 26 17  2  0  0  0  0
 26 24  1  0  0  0  0
 27 26  1  0  0  0  0
 28  4  1  0  0  0  0
 28 37  1  0  0  0  0
 29 28  2  0  0  0  0
 30 29  1  0  0  0  0
 31 29  1  0  0  0  0
 31 33  2  0  0  0  0
 32 31  1  0  0  0  0
 33 35  1  0  0  0  0
 34 33  1  0  0  0  0
 35 37  2  0  0  0  0
 35 36  1  0  0  0  0
 37 38  1  0  0  0  0
 39 48  1  0  0  0  0
 40 39  2  0  0  0  0
 40 42  1  0  0  0  0
 41 40  1  0  0  0  0
 42 44  2  0  0  0  0
 43 42  1  0  0  0  0
 44 46  1  0  0  0  0
 44 45  1  0  0  0  0
 46 47  1  0  0  0  0
 48 49  1  0  0  0  0
 48 46  2  0  0  0  0
 50 13  1  0  0  0  0
 50 51  1  0  0  0  0
 51 52  1  0  0  0  0
 53 51  2  0  0  0  0
 53 54  1  0  0  0  0
 55 53  1  0  0  0  0
 56 55  1  0  0  0  0
 57 59  1  0  0  0  0
 57 55  2  0  0  0  0
 58 57  1  0  0  0  0
 59 50  2  0  0  0  0
 60 59  1  0  0  0  0
M  END
