3,8
 OpenBabel05122313053D

 24 24  0  0  1  0  0  0  0  0999 V2000
   -2.5927   -1.6023   -0.0986 S   0  0  0  0  0  0  0  0  0  0  0  0
   -3.2166   -0.2871   -0.3906 O   0  0  0  0  0  0  0  0  0  0  0  0
   -1.0262   -1.3602    0.3945 N   0  0  0  0  0  2  0  0  0  0  0  0
   -0.3708   -2.5703    0.8716 C   0  0  0  0  0  0  0  0  0  0  0  0
   -0.1251   -3.2936    0.0508 H   0  0  0  0  0  0  0  0  0  0  0  0
   -1.0546   -3.0987    1.5688 H   0  0  0  0  0  0  0  0  0  0  0  0
   -3.2490   -2.5180    0.8736 O   0  0  0  0  0  0  0  0  0  0  0  0
    1.7599   -0.8581   -0.2340 N   0  0  0  0  0  2  0  0  0  0  0  0
    0.9331   -2.2425    1.6122 C   0  0  0  0  0  0  0  0  0  0  0  0
    0.7313   -1.4242    2.3340 H   0  0  0  0  0  0  0  0  0  0  0  0
    1.2668   -3.1261    2.1903 H   0  0  0  0  0  0  0  0  0  0  0  0
    2.0286   -1.8416    0.6674 C   0  0  1  0  0  3  0  0  0  0  0  0
    3.2748   -2.4941    0.6498 C   0  0  0  0  0  0  0  0  0  0  0  0
    3.4677   -3.2837    1.3902 H   0  0  0  0  0  0  0  0  0  0  0  0
    4.2411   -2.1474   -0.3016 C   0  0  0  0  0  0  0  0  0  0  0  0
    5.2198   -2.6500   -0.3137 H   0  0  0  0  0  0  0  0  0  0  0  0
    3.9243   -1.1650   -1.2501 C   0  0  0  0  0  0  0  0  0  0  0  0
    4.6315   -0.8747   -2.0397 H   0  0  0  0  0  0  0  0  0  0  0  0
    2.6716   -0.5516   -1.1906 C   0  0  0  0  0  0  0  0  0  0  0  0
    2.3373    0.1885   -1.9323 H   0  0  0  0  0  0  0  0  0  0  0  0
   -2.5482   -2.4900   -1.6764 C   0  0  0  0  0  0  0  0  0  0  0  0
   -3.6016   -2.6592   -1.9671 H   0  0  0  0  0  0  0  0  0  0  0  0
   -2.0326   -3.4575   -1.5294 H   0  0  0  0  0  0  0  0  0  0  0  0
   -2.0105   -1.8519   -2.4021 H   0  0  0  0  0  0  0  0  0  0  0  0
  1  3  1  0  0  0  0
  1  7  2  0  0  0  0
  2  1  2  0  0  0  0
  3  4  1  0  0  0  0
  4  6  1  0  0  0  0
  4  9  1  0  0  0  0
  5  4  1  0  0  0  0
  8 12  1  0  0  0  0
  9 11  1  0  0  0  0
  9 10  1  0  0  0  0
 12  9  1  6  0  0  0
 13 12  1  0  0  0  0
 13 14  1  0  0  0  0
 15 13  2  0  0  0  0
 16 15  1  0  0  0  0
 17 19  2  0  0  0  0
 17 15  1  0  0  0  0
 18 17  1  0  0  0  0
 19  8  1  0  0  0  0
 20 19  1  0  0  0  0
 21 23  1  0  0  0  0
 21  1  1  0  0  0  0
 22 21  1  0  0  0  0
 24 21  1  0  0  0  0
M  END
