2,3
 OpenBabel05122313053D

 50 54  0  0  0  0  0  0  0  0999 V2000
    2.4955   -1.0021   -2.7345 O   0  0  0  0  0  0  0  0  0  0  0  0
   -2.5906   -0.6296   -1.2570 N   0  0  0  0  0  2  0  0  0  0  0  0
   -0.3122    0.5478   -0.9289 N   0  0  0  0  0  2  0  0  0  0  0  0
   -3.8327   -1.1284   -1.4221 C   0  0  0  0  0  3  0  0  0  0  0  0
   -4.1443   -2.0176   -2.4561 C   0  0  0  0  0  0  0  0  0  0  0  0
   -3.1440   -2.3916   -3.3698 C   0  0  0  0  0  0  0  0  0  0  0  0
   -1.8665   -1.8442   -3.2264 C   0  0  0  0  0  0  0  0  0  0  0  0
   -1.6159   -0.9572   -2.1634 C   0  0  0  0  0  0  0  0  0  0  0  0
   -0.3641   -0.2789   -1.9442 C   0  0  0  0  0  3  0  0  0  0  0  0
    0.8814    1.2944   -0.6943 C   0  0  0  0  0  0  0  0  0  0  0  0
    0.7456    2.7141   -0.6557 C   0  0  0  0  0  0  0  0  0  0  0  0
    1.8601    3.5090   -0.4772 C   0  0  0  0  0  0  0  0  0  0  0  0
    3.1548    2.9332   -0.3168 C   0  0  0  0  0  0  0  0  0  0  0  0
    4.3154    3.7378   -0.1334 C   0  0  0  0  0  0  0  0  0  0  0  0
    5.5646    3.1564    0.0267 C   0  0  0  0  0  0  0  0  0  0  0  0
    5.6999    1.7430    0.0090 C   0  0  0  0  0  0  0  0  0  0  0  0
    4.5891    0.9311   -0.1668 C   0  0  0  0  0  0  0  0  0  0  0  0
    3.2901    1.4966   -0.3367 C   0  0  0  0  0  0  0  0  0  0  0  0
    2.1295    0.6676   -0.5250 C   0  0  0  0  0  0  0  0  0  0  0  0
    2.2632   -0.8156   -0.3994 C   0  0  0  0  0  0  0  0  0  0  0  0
    2.2992   -1.4088    0.9077 C   0  0  0  0  0  0  0  0  0  0  0  0
    2.3277   -0.6229    2.1021 C   0  0  0  0  0  0  0  0  0  0  0  0
    2.3674   -1.2222    3.3539 C   0  0  0  0  0  0  0  0  0  0  0  0
    2.3599   -2.6373    3.4798 C   0  0  0  0  0  0  0  0  0  0  0  0
    2.3585   -3.4292    2.3410 C   0  0  0  0  0  0  0  0  0  0  0  0
    2.3541   -2.8453    1.0398 C   0  0  0  0  0  0  0  0  0  0  0  0
    2.4363   -3.6374   -0.1393 C   0  0  0  0  0  0  0  0  0  0  0  0
    2.4988   -3.0538   -1.3934 C   0  0  0  0  0  0  0  0  0  0  0  0
    2.4293   -1.6367   -1.5259 C   0  0  0  0  0  0  0  0  0  0  0  0
    2.8581   -1.7467   -3.8923 C   0  0  0  0  0  0  0  0  0  0  0  0
   -4.5947   -0.7918   -0.7061 H   0  0  0  0  0  0  0  0  0  0  0  0
   -5.1689   -2.4056   -2.5407 H   0  0  0  0  0  0  0  0  0  0  0  0
   -3.3669   -3.0886   -4.1905 H   0  0  0  0  0  0  0  0  0  0  0  0
   -1.0562   -2.0792   -3.9309 H   0  0  0  0  0  0  0  0  0  0  0  0
    0.4951   -0.3950   -2.6252 H   0  0  0  0  0  0  0  0  0  0  0  0
   -0.2555    3.1396   -0.8205 H   0  0  0  0  0  0  0  0  0  0  0  0
    1.7598    4.6051   -0.4722 H   0  0  0  0  0  0  0  0  0  0  0  0
    4.2026    4.8327   -0.1227 H   0  0  0  0  0  0  0  0  0  0  0  0
    6.4539    3.7887    0.1662 H   0  0  0  0  0  0  0  0  0  0  0  0
    6.6945    1.2895    0.1331 H   0  0  0  0  0  0  0  0  0  0  0  0
    4.6990   -0.1626   -0.1828 H   0  0  0  0  0  0  0  0  0  0  0  0
    2.3622    0.4730    2.0167 H   0  0  0  0  0  0  0  0  0  0  0  0
    2.4097   -0.5954    4.2574 H   0  0  0  0  0  0  0  0  0  0  0  0
    2.3795   -3.0999    4.4775 H   0  0  0  0  0  0  0  0  0  0  0  0
    2.3850   -4.5268    2.4245 H   0  0  0  0  0  0  0  0  0  0  0  0
    2.4790   -4.7332   -0.0436 H   0  0  0  0  0  0  0  0  0  0  0  0
    2.6010   -3.6887   -2.2831 H   0  0  0  0  0  0  0  0  0  0  0  0
    3.8312   -2.2634   -3.7535 H   0  0  0  0  0  0  0  0  0  0  0  0
    2.0842   -2.4983   -4.1652 H   0  0  0  0  0  0  0  0  0  0  0  0
    2.9521   -1.0114   -4.7118 H   0  0  0  0  0  0  0  0  0  0  0  0
  1 29  1  0  0  0  0
  3 10  1  0  0  0  0
  4  2  1  0  0  0  0
  4 31  1  0  0  0  0
  5  4  1  0  0  0  0
  6  7  1  0  0  0  0
  6  5  2  0  0  0  0
  7  8  2  0  0  0  0
  8  9  1  0  0  0  0
  8  2  1  0  0  0  0
  9  3  1  0  0  0  0
 10 11  2  0  0  0  0
 10 19  1  0  0  0  0
 11 12  1  0  0  0  0
 12 37  1  0  0  0  0
 12 13  2  0  0  0  0
 13 14  1  0  0  0  0
 14 38  1  0  0  0  0
 14 15  2  0  0  0  0
 15 39  1  0  0  0  0
 16 15  1  0  0  0  0
 16 40  1  0  0  0  0
 17 16  2  0  0  0  0
 18 13  1  0  0  0  0
 18 17  1  0  0  0  0
 19 20  1  0  0  0  0
 19 18  2  0  0  0  0
 20 21  1  0  0  0  0
 21 26  2  0  0  0  0
 21 22  1  0  0  0  0
 22 23  2  0  0  0  0
 23 24  1  0  0  0  0
 23 43  1  0  0  0  0
 24 44  1  0  0  0  0
 25 45  1  0  0  0  0
 25 24  2  0  0  0  0
 26 25  1  0  0  0  0
 27 46  1  0  0  0  0
 27 26  1  0  0  0  0
 28 27  2  0  0  0  0
 29 28  1  0  0  0  0
 29 20  2  0  0  0  0
 30 48  1  0  0  0  0
 30  1  1  0  0  0  0
 32  5  1  0  0  0  0
 33  6  1  0  0  0  0
 34  7  1  0  0  0  0
 35  9  1  0  0  0  0
 36 11  1  0  0  0  0
 41 17  1  0  0  0  0
 42 22  1  0  0  0  0
 47 28  1  0  0  0  0
 49 30  1  0  0  0  0
 50 30  1  0  0  0  0
M  END
