3,6
 OpenBabel05122313053D

 42 44  0  0  1  0  0  0  0  0999 V2000
   -2.9504    1.6597    1.1879 O   0  0  0  0  0  0  0  0  0  0  0  0
   -3.8714    1.4106    1.3898 H   0  0  0  0  0  0  0  0  0  0  0  0
   -0.5535    2.3575   -0.0349 N   0  0  0  0  0  2  0  0  0  0  0  0
   -2.5962   -2.3456   -0.2358 C   0  0  2  0  0  3  0  0  0  0  0  0
   -4.9537   -1.8935   -0.2750 O   0  0  0  0  0  0  0  0  0  0  0  0
   -1.3376   -1.8669   -0.1102 N   0  0  0  0  0  2  0  0  0  0  0  0
   -2.8851   -3.7119   -0.1065 C   0  0  0  0  0  0  0  0  0  0  0  0
   -3.9321   -4.0298   -0.1967 H   0  0  0  0  0  0  0  0  0  0  0  0
   -1.8380   -4.6101    0.1376 C   0  0  0  0  0  0  0  0  0  0  0  0
   -2.0403   -5.6857    0.2492 H   0  0  0  0  0  0  0  0  0  0  0  0
   -0.5300   -4.1275    0.2248 C   0  0  0  0  0  0  0  0  0  0  0  0
    0.3235   -4.7963    0.3969 H   0  0  0  0  0  0  0  0  0  0  0  0
   -0.2989   -2.7396    0.0900 C   0  0  0  0  0  0  0  0  0  0  0  0
    1.0169   -2.2085    0.1367 C   0  0  0  0  0  0  0  0  0  0  0  0
    2.1782   -1.7950    0.1248 C   0  0  0  0  0  0  0  0  0  0  0  0
    3.5108   -1.3137    0.0808 C   0  0  0  0  0  0  0  0  0  0  0  0
    4.6006   -2.2117    0.1760 C   0  0  0  0  0  0  0  0  0  0  0  0
    4.3944   -3.2844    0.2974 H   0  0  0  0  0  0  0  0  0  0  0  0
    5.9172   -1.7440    0.1138 C   0  0  0  0  0  0  0  0  0  0  0  0
    6.7517   -2.4564    0.1890 H   0  0  0  0  0  0  0  0  0  0  0  0
    6.1752   -0.3702   -0.0451 C   0  0  0  0  0  0  0  0  0  0  0  0
    7.2116   -0.0058   -0.0949 H   0  0  0  0  0  0  0  0  0  0  0  0
    5.1164    0.5384   -0.1388 C   0  0  0  0  0  0  0  0  0  0  0  0
    5.3120    1.6131   -0.2597 H   0  0  0  0  0  0  0  0  0  0  0  0
    3.7748    0.0911   -0.0764 C   0  0  0  0  0  0  0  0  0  0  0  0
    2.7064    1.0191   -0.1517 C   0  0  0  0  0  0  0  0  0  0  0  0
    1.7720    1.8227   -0.1916 C   0  0  0  0  0  0  0  0  0  0  0  0
    0.7382    2.7941   -0.1685 C   0  0  2  0  0  3  0  0  0  0  0  0
    1.0359    4.1748   -0.2533 C   0  0  0  0  0  0  0  0  0  0  0  0
    2.0807    4.4898   -0.3745 H   0  0  0  0  0  0  0  0  0  0  0  0
   -0.0043    5.1002   -0.1667 C   0  0  0  0  0  0  0  0  0  0  0  0
    0.2045    6.1786   -0.2232 H   0  0  0  0  0  0  0  0  0  0  0  0
   -1.3155    4.6383    0.0191 C   0  0  0  0  0  0  0  0  0  0  0  0
   -2.1534    5.3416    0.1264 H   0  0  0  0  0  0  0  0  0  0  0  0
   -1.5567    3.2572    0.0780 C   0  0  0  0  0  0  0  0  0  0  0  0
   -3.6902   -1.3542   -0.5724 C   0  0  0  0  0  0  0  0  0  0  0  0
   -3.4821   -0.4099   -0.0072 H   0  0  0  0  0  0  0  0  0  0  0  0
   -3.5749   -1.1000   -1.6546 H   0  0  0  0  0  0  0  0  0  0  0  0
   -2.9633    2.7273    0.2505 C   0  0  0  0  0  0  0  0  0  0  0  0
   -3.6143    3.5649    0.5821 H   0  0  0  0  0  0  0  0  0  0  0  0
   -3.3390    2.3892   -0.7485 H   0  0  0  0  0  0  0  0  0  0  0  0
   -5.5929   -1.5846   -0.9395 H   0  0  0  0  0  0  0  0  0  0  0  0
  1  2  1  0  0  0  0
  3 35  1  0  0  0  0
  4 36  1  6  0  0  0
  4  6  1  0  0  0  0
  4  7  1  0  0  0  0
  6 13  1  0  0  0  0
  7  9  2  0  0  0  0
  8  7  1  0  0  0  0
  9 11  1  0  0  0  0
  9 10  1  0  0  0  0
 11 12  1  0  0  0  0
 13 14  1  0  0  0  0
 13 11  2  0  0  0  0
 15 14  3  0  0  0  0
 16 15  1  0  0  0  0
 16 17  1  0  0  0  0
 17 18  1  0  0  0  0
 19 17  2  0  0  0  0
 19 20  1  0  0  0  0
 21 19  1  0  0  0  0
 22 21  1  0  0  0  0
 23 25  1  0  0  0  0
 23 21  2  0  0  0  0
 24 23  1  0  0  0  0
 25 16  2  0  0  0  0
 26 25  1  0  0  0  0
 27 26  3  0  0  0  0
 28 27  1  1  0  0  0
 28  3  1  0  0  0  0
 29 28  1  0  0  0  0
 29 31  2  0  0  0  0
 30 29  1  0  0  0  0
 31 33  1  0  0  0  0
 32 31  1  0  0  0  0
 33 35  2  0  0  0  0
 33 34  1  0  0  0  0
 35 39  1  0  0  0  0
 36  5  1  0  0  0  0
 36 37  1  0  0  0  0
 38 36  1  0  0  0  0
 39 40  1  0  0  0  0
 39  1  1  0  0  0  0
 41 39  1  0  0  0  0
 42  5  1  0  0  0  0
M  END
