1,3
 OpenBabel05122313053D

 27 28  0  0  0  0  0  0  0  0999 V2000
    1.8844    0.5594    0.0024 N   0  0  0  0  0  2  0  0  0  0  0  0
    2.3028   -1.7054    0.0060 N   0  0  0  0  0  0  0  0  0  0  0  0
    0.9928   -1.7364    0.1963 N   0  0  0  0  0  2  0  0  0  0  0  0
    2.7747   -0.4463   -0.0839 C   0  0  0  0  0  0  0  0  0  0  0  0
    4.2252   -0.2394   -0.2636 C   0  0  0  0  0  0  0  0  0  0  0  0
    5.0736   -1.3485   -0.4906 C   0  0  0  0  0  0  0  0  0  0  0  0
    6.4493   -1.1670   -0.6687 C   0  0  0  0  0  0  0  0  0  0  0  0
    7.0084    0.1216   -0.6226 C   0  0  0  0  0  0  0  0  0  0  0  0
    6.1770    1.2288   -0.3898 C   0  0  0  0  0  0  0  0  0  0  0  0
    4.7994    1.0513   -0.2091 C   0  0  0  0  0  0  0  0  0  0  0  0
    0.4002   -3.0125    0.2604 C   0  0  0  0  0  0  0  0  0  0  0  0
   -0.7423   -3.2117    1.0715 C   0  0  0  0  0  0  0  0  0  0  0  0
   -1.3557   -4.4705    1.1219 C   0  0  0  0  0  0  0  0  0  0  0  0
   -0.8359   -5.5458    0.3823 C   0  0  0  0  0  0  0  0  0  0  0  0
    0.3154   -5.3540   -0.4029 C   0  0  0  0  0  0  0  0  0  0  0  0
    0.9364   -4.1026   -0.4647 C   0  0  0  0  0  0  0  0  0  0  0  0
    2.2223    1.5161   -0.1426 H   0  0  0  0  0  0  0  0  0  0  0  0
    4.6244   -2.3506   -0.5214 H   0  0  0  0  0  0  0  0  0  0  0  0
    7.0945   -2.0409   -0.8461 H   0  0  0  0  0  0  0  0  0  0  0  0
    8.0906    0.2626   -0.7641 H   0  0  0  0  0  0  0  0  0  0  0  0
    6.6056    2.2414   -0.3433 H   0  0  0  0  0  0  0  0  0  0  0  0
    4.1717    1.9338   -0.0090 H   0  0  0  0  0  0  0  0  0  0  0  0
   -1.1108   -2.3749    1.6819 H   0  0  0  0  0  0  0  0  0  0  0  0
   -2.2375   -4.6171    1.7643 H   0  0  0  0  0  0  0  0  0  0  0  0
   -1.3189   -6.5333    0.4255 H   0  0  0  0  0  0  0  0  0  0  0  0
    0.7306   -6.1928   -0.9824 H   0  0  0  0  0  0  0  0  0  0  0  0
    1.8307   -3.9329   -1.0792 H   0  0  0  0  0  0  0  0  0  0  0  0
  2  3  1  0  0  0  0
  3 11  1  0  0  0  0
  4  1  1  0  0  0  0
  4  2  2  0  0  0  0
  5 10  1  0  0  0  0
  5  4  1  0  0  0  0
  6  5  2  0  0  0  0
  7  8  2  0  0  0  0
  7  6  1  0  0  0  0
  8  9  1  0  0  0  0
  9 21  1  0  0  0  0
  9 10  2  0  0  0  0
 10 22  1  0  0  0  0
 11 12  1  0  0  0  0
 12 13  2  0  0  0  0
 12 23  1  0  0  0  0
 13 24  1  0  0  0  0
 14 25  1  0  0  0  0
 14 13  1  0  0  0  0
 15 14  2  0  0  0  0
 16 15  1  0  0  0  0
 16 11  2  0  0  0  0
 17  1  1  0  0  0  0
 18  6  1  0  0  0  0
 19  7  1  0  0  0  0
 20  8  1  0  0  0  0
 26 15  1  0  0  0  0
 27 16  1  0  0  0  0
M  END
