11,12
 OpenBabel05122313053D

 42 43  0  0  1  0  0  0  0  0999 V2000
    1.3371   -3.0703    1.8328 F   0  0  0  0  0  0  0  0  0  0  0  0
    3.6531   -1.6639    1.6748 F   0  0  0  0  0  0  0  0  0  0  0  0
    4.5799   -0.8129   -0.7626 F   0  0  0  0  0  0  0  0  0  0  0  0
    3.1618   -1.3712   -3.0393 F   0  0  0  0  0  0  0  0  0  0  0  0
    0.8146   -2.7322   -2.8798 F   0  0  0  0  0  0  0  0  0  0  0  0
   -0.9901    2.5169    2.5243 F   0  0  0  0  0  0  0  0  0  0  0  0
    0.7700    4.0698    1.1724 F   0  0  0  0  0  0  0  0  0  0  0  0
    0.4882    4.4440   -1.5276 F   0  0  0  0  0  0  0  0  0  0  0  0
   -1.6234    3.3028   -2.8560 F   0  0  0  0  0  0  0  0  0  0  0  0
   -3.4261    1.7861   -1.4952 F   0  0  0  0  0  0  0  0  0  0  0  0
   -1.4303   -2.6944   -0.1804 N   0  0  0  0  0  2  0  0  0  0  0  0
   -2.9560   -0.2418    0.7236 N   0  0  0  0  0  2  0  0  0  0  0  0
   -2.9312   -4.5772   -0.7352 C   0  0  0  0  0  0  0  0  0  0  0  0
   -2.4705   -5.2918   -0.0209 H   0  0  0  0  0  0  0  0  0  0  0  0
   -2.4837   -4.7929   -1.7288 H   0  0  0  0  0  0  0  0  0  0  0  0
   -4.0114   -4.8004   -0.7931 H   0  0  0  0  0  0  0  0  0  0  0  0
   -2.6865   -3.1392   -0.3131 C   0  0  2  0  0  3  0  0  0  0  0  0
   -3.8458   -2.3500   -0.0886 C   0  0  0  0  0  0  0  0  0  0  0  0
   -4.7931   -2.8670   -0.2917 H   0  0  0  0  0  0  0  0  0  0  0  0
   -3.9880   -1.0173    0.3800 C   0  0  0  0  0  0  0  0  0  0  0  0
   -5.4141   -0.4997    0.4853 C   0  0  0  0  0  0  0  0  0  0  0  0
   -5.5577    0.3999   -0.1496 H   0  0  0  0  0  0  0  0  0  0  0  0
   -5.6792   -0.2146    1.5249 H   0  0  0  0  0  0  0  0  0  0  0  0
   -6.1355   -1.2665    0.1514 H   0  0  0  0  0  0  0  0  0  0  0  0
    0.9982   -2.9424   -0.5181 C   0  0  0  0  0  0  0  0  0  0  0  0
    1.7617   -2.6612    0.6256 C   0  0  0  0  0  0  0  0  0  0  0  0
    2.9723   -1.9551    0.5603 C   0  0  0  0  0  0  0  0  0  0  0  0
    3.4471   -1.5168   -0.6869 C   0  0  0  0  0  0  0  0  0  0  0  0
    2.7175   -1.8006   -1.8522 C   0  0  0  0  0  0  0  0  0  0  0  0
    1.5069   -2.5035   -1.7505 C   0  0  0  0  0  0  0  0  0  0  0  0
   -0.3393   -3.6358   -0.4207 C   0  0  0  0  0  0  0  0  0  0  0  0
   -0.4853   -4.2085   -1.3627 H   0  0  0  0  0  0  0  0  0  0  0  0
   -0.2734   -4.3901    0.3982 H   0  0  0  0  0  0  0  0  0  0  0  0
   -2.2621    2.0939    0.5543 C   0  0  0  0  0  0  0  0  0  0  0  0
   -1.1892    2.7157    1.2100 C   0  0  0  0  0  0  0  0  0  0  0  0
   -0.2689    3.5277    0.5271 C   0  0  0  0  0  0  0  0  0  0  0  0
   -0.4122    3.7211   -0.8551 C   0  0  0  0  0  0  0  0  0  0  0  0
   -1.4959    3.1375   -1.5332 C   0  0  0  0  0  0  0  0  0  0  0  0
   -2.4080    2.3489   -0.8189 C   0  0  0  0  0  0  0  0  0  0  0  0
   -3.1701    1.0984    1.2464 C   0  0  0  0  0  0  0  0  0  0  0  0
   -2.9416    1.1326    2.3344 H   0  0  0  0  0  0  0  0  0  0  0  0
   -4.2181    1.4486    1.1324 H   0  0  0  0  0  0  0  0  0  0  0  0
  3 28  1  0  0  0  0
  4 29  1  0  0  0  0
  5 30  1  0  0  0  0
  8 37  1  0  0  0  0
  9 38  1  0  0  0  0
 10 39  1  0  0  0  0
 12 40  1  0  0  0  0
 13 17  1  0  0  0  0
 13 14  1  0  0  0  0
 15 13  1  0  0  0  0
 16 13  1  0  0  0  0
 17 11  1  6  0  0  0
 17 18  1  0  0  0  0
 18 20  2  0  0  0  0
 19 18  1  0  0  0  0
 20 21  1  0  0  0  0
 20 12  1  0  0  0  0
 21 23  1  0  0  0  0
 22 21  1  0  0  0  0
 24 21  1  0  0  0  0
 25 31  1  0  0  0  0
 25 26  1  0  0  0  0
 26  1  1  0  0  0  0
 27 26  2  0  0  0  0
 27  2  1  0  0  0  0
 28 27  1  0  0  0  0
 29 30  1  0  0  0  0
 29 28  2  0  0  0  0
 30 25  2  0  0  0  0
 31 11  1  0  0  0  0
 31 33  1  0  0  0  0
 32 31  1  0  0  0  0
 34 35  1  0  0  0  0
 34 40  1  0  0  0  0
 35  6  1  0  0  0  0
 36  7  1  0  0  0  0
 36 35  2  0  0  0  0
 37 36  1  0  0  0  0
 38 37  2  0  0  0  0
 38 39  1  0  0  0  0
 39 34  2  0  0  0  0
 40 41  1  0  0  0  0
 42 40  1  0  0  0  0
M  END
