1,2
 OpenBabel05122313053D

 24 25  0  0  1  0  0  0  0  0999 V2000
   -0.2344   -1.2428   -1.3683 N   0  0  0  0  0  2  0  0  0  0  0  0
   -1.6794   -0.8534    0.7282 N   0  0  0  0  0  2  0  0  0  0  0  0
    0.6149   -1.3940   -2.4000 C   0  0  0  0  0  3  0  0  0  0  0  0
    1.5783   -0.8722   -2.3226 H   0  0  0  0  0  0  0  0  0  0  0  0
    0.2910   -2.1538   -3.5264 C   0  0  0  0  0  0  0  0  0  0  0  0
    1.0137   -2.2438   -4.3486 H   0  0  0  0  0  0  0  0  0  0  0  0
   -0.9640   -2.7866   -3.5653 C   0  0  0  0  0  0  0  0  0  0  0  0
   -1.2475   -3.4137   -4.4240 H   0  0  0  0  0  0  0  0  0  0  0  0
   -1.8545   -2.6122   -2.5069 C   0  0  0  0  0  0  0  0  0  0  0  0
   -2.8385   -3.0983   -2.5070 H   0  0  0  0  0  0  0  0  0  0  0  0
   -1.4871   -1.8011   -1.4053 C   0  0  0  0  0  0  0  0  0  0  0  0
   -2.3154   -1.5452   -0.2475 C   0  0  2  0  0  3  0  0  0  0  0  0
   -2.1785   -0.6414    1.8558 O   0  0  0  0  0  1  0  0  0  0  0  0
   -3.7210   -1.9758   -0.1133 C   0  0  0  0  0  0  0  0  0  0  0  0
   -4.6324   -1.7603   -1.1744 C   0  0  0  0  0  0  0  0  0  0  0  0
   -4.2871   -1.2493   -2.0858 H   0  0  0  0  0  0  0  0  0  0  0  0
   -5.9731   -2.1519   -1.0605 C   0  0  0  0  0  0  0  0  0  0  0  0
   -6.6667   -1.9691   -1.8956 H   0  0  0  0  0  0  0  0  0  0  0  0
   -6.4338   -2.7568    0.1197 C   0  0  0  0  0  0  0  0  0  0  0  0
   -7.4873   -3.0619    0.2113 H   0  0  0  0  0  0  0  0  0  0  0  0
   -5.5442   -2.9563    1.1876 C   0  0  0  0  0  0  0  0  0  0  0  0
   -5.9002   -3.4190    2.1209 H   0  0  0  0  0  0  0  0  0  0  0  0
   -4.2029   -2.5663    1.0780 C   0  0  0  0  0  0  0  0  0  0  0  0
   -3.5180   -2.7091    1.9237 H   0  0  0  0  0  0  0  0  0  0  0  0
  2 13  1  0  0  0  0
  3  4  1  0  0  0  0
  3  1  1  0  0  0  0
  5  3  1  0  0  0  0
  6  5  1  0  0  0  0
  7  5  2  0  0  0  0
  7  9  1  0  0  0  0
  8  7  1  0  0  0  0
  9 11  2  0  0  0  0
 10  9  1  0  0  0  0
 11  1  1  0  0  0  0
 11 12  1  0  0  0  0
 12 14  1  0  0  0  0
 12  2  1  6  0  0  0
 14 23  1  0  0  0  0
 15 17  1  0  0  0  0
 15 14  2  0  0  0  0
 16 15  1  0  0  0  0
 17 19  2  0  0  0  0
 18 17  1  0  0  0  0
 19 20  1  0  0  0  0
 19 21  1  0  0  0  0
 21 22  1  0  0  0  0
 23 21  2  0  0  0  0
 23 24  1  0  0  0  0
M  END
