1,3
 OpenBabel05122313053D

 42 45  0  0  0  0  0  0  0  0999 V2000
   -0.2529    0.5472   -0.2361 N   0  0  0  0  0  2  0  0  0  0  0  0
    1.8673    0.1452   -0.8708 N   0  0  0  0  0  0  0  0  0  0  0  0
   -1.1884   -1.8675   -0.3653 N   0  0  0  0  0  2  0  0  0  0  0  0
    4.1930   -2.4989   -0.3799 N   0  0  0  0  0  0  0  0  0  0  0  0
    0.4172    1.7616   -0.2531 C   0  0  0  0  0  0  0  0  0  0  0  0
    1.7597    1.5142   -0.6467 C   0  0  0  0  0  0  0  0  0  0  0  0
    2.6969    2.5541   -0.7464 C   0  0  0  0  0  0  0  0  0  0  0  0
    3.7407    2.3664   -1.0398 H   0  0  0  0  0  0  0  0  0  0  0  0
    2.2727    3.8601   -0.4557 C   0  0  0  0  0  0  0  0  0  0  0  0
    0.9126    4.1164   -0.0643 C   0  0  0  0  0  0  0  0  0  0  0  0
   -0.0108    3.0690    0.0367 C   0  0  0  0  0  0  0  0  0  0  0  0
   -1.0585    3.2271    0.3342 H   0  0  0  0  0  0  0  0  0  0  0  0
    0.6320   -0.4105   -0.5958 C   0  0  0  0  0  0  0  0  0  0  0  0
    0.1626   -1.7810   -0.6517 C   0  0  0  0  0  0  0  0  0  0  0  0
    0.9145   -2.9381   -0.9358 C   0  0  0  0  0  0  0  0  0  0  0  0
    1.9985   -2.8865   -1.1048 H   0  0  0  0  0  0  0  0  0  0  0  0
    0.2749   -4.1821   -0.9575 C   0  0  0  0  0  0  0  0  0  0  0  0
    0.8544   -5.0909   -1.1756 H   0  0  0  0  0  0  0  0  0  0  0  0
   -1.1012   -4.2494   -0.6895 C   0  0  0  0  0  0  0  0  0  0  0  0
   -1.6435   -5.2053   -0.6978 H   0  0  0  0  0  0  0  0  0  0  0  0
   -1.7964   -3.0761   -0.3904 C   0  0  0  0  0  0  0  0  0  0  0  0
   -2.8732   -3.0435   -0.1488 H   0  0  0  0  0  0  0  0  0  0  0  0
    3.0843   -0.5351   -1.2792 C   0  0  0  0  0  0  0  0  0  0  0  0
    3.7428    0.2307   -1.7368 H   0  0  0  0  0  0  0  0  0  0  0  0
    2.8663   -1.2744   -2.0727 H   0  0  0  0  0  0  0  0  0  0  0  0
    3.8085   -1.2331   -0.1389 C   0  0  0  0  0  0  0  0  0  0  0  0
    4.0506   -0.5781    1.0837 C   0  0  0  0  0  0  0  0  0  0  0  0
    3.7063    0.4554    1.2420 H   0  0  0  0  0  0  0  0  0  0  0  0
    4.7308   -1.2755    2.0900 C   0  0  0  0  0  0  0  0  0  0  0  0
    4.9341   -0.7965    3.0596 H   0  0  0  0  0  0  0  0  0  0  0  0
    5.1459   -2.5922    1.8395 C   0  0  0  0  0  0  0  0  0  0  0  0
    5.6812   -3.1770    2.6018 H   0  0  0  0  0  0  0  0  0  0  0  0
    4.8513   -3.1564    0.5892 C   0  0  0  0  0  0  0  0  0  0  0  0
    5.1513   -4.1936    0.3585 H   0  0  0  0  0  0  0  0  0  0  0  0
    3.2503    5.0018   -0.5535 C   0  0  0  0  0  0  0  0  0  0  0  0
    4.2553    4.6553   -0.8612 H   0  0  0  0  0  0  0  0  0  0  0  0
    3.3538    5.5336    0.4159 H   0  0  0  0  0  0  0  0  0  0  0  0
    2.9127    5.7633   -1.2879 H   0  0  0  0  0  0  0  0  0  0  0  0
    0.4766    5.5266    0.2420 C   0  0  0  0  0  0  0  0  0  0  0  0
   -0.5914    5.5603    0.5263 H   0  0  0  0  0  0  0  0  0  0  0  0
    0.6189    6.1981   -0.6312 H   0  0  0  0  0  0  0  0  0  0  0  0
    1.0659    5.9668    1.0743 H   0  0  0  0  0  0  0  0  0  0  0  0
  2  6  1  0  0  0  0
  2 13  1  0  0  0  0
  4 26  2  0  0  0  0
  4 33  1  0  0  0  0
  5  1  1  0  0  0  0
  5 11  1  0  0  0  0
  6  5  2  0  0  0  0
  7  6  1  0  0  0  0
  7  9  2  0  0  0  0
  8  7  1  0  0  0  0
  9 10  1  0  0  0  0
 10 11  2  0  0  0  0
 10 39  1  0  0  0  0
 11 12  1  0  0  0  0
 13  1  1  0  0  0  0
 14 13  2  0  0  0  0
 14  3  1  0  0  0  0
 15 14  1  0  0  0  0
 16 15  1  0  0  0  0
 17 15  2  0  0  0  0
 17 19  1  0  0  0  0
 18 17  1  0  0  0  0
 19 21  2  0  0  0  0
 20 19  1  0  0  0  0
 21  3  1  0  0  0  0
 21 22  1  0  0  0  0
 23  2  1  0  0  0  0
 23 26  1  0  0  0  0
 24 23  1  0  0  0  0
 25 23  1  0  0  0  0
 26 27  1  0  0  0  0
 27 28  1  0  0  0  0
 27 29  2  0  0  0  0
 29 30  1  0  0  0  0
 31 29  1  0  0  0  0
 31 32  1  0  0  0  0
 33 31  2  0  0  0  0
 34 33  1  0  0  0  0
 35  9  1  0  0  0  0
 35 37  1  0  0  0  0
 36 35  1  0  0  0  0
 38 35  1  0  0  0  0
 39 40  1  0  0  0  0
 39 42  1  0  0  0  0
 41 39  1  0  0  0  0
M  END
