1,18
 OpenBabel05122313053D

 20 22  0  0  1  0  0  0  0  0999 V2000
    0.8131    0.4401    0.0000 N   0  0  0  0  0  2  0  0  0  0  0  0
    2.1542    0.4386    0.0000 C   0  0  2  0  0  3  0  0  0  0  0  0
    2.7171   -0.8398    0.0001 N   0  0  0  0  0  0  0  0  0  0  0  0
    2.0211   -1.6055    0.0001 H   0  0  0  0  0  0  0  0  0  0  0  0
    4.0036   -1.1614    0.0001 C   0  0  1  0  0  3  0  0  0  0  0  0
    5.1133   -0.4231    0.0001 O   0  0  0  0  0  0  0  0  0  0  0  0
    5.0961   -2.0135    0.0001 C   0  0  0  0  0  2  0  0  0  0  0  0
    2.9123    1.6382   -0.0000 C   0  0  0  0  0  0  0  0  0  0  0  0
    4.0081    1.6014   -0.0000 H   0  0  0  0  0  0  0  0  0  0  0  0
    2.2246    2.8557   -0.0000 C   0  0  0  0  0  0  0  0  0  0  0  0
    2.7883    3.8004   -0.0001 H   0  0  0  0  0  0  0  0  0  0  0  0
   -0.0457    4.0464   -0.0001 C   0  0  0  0  0  0  0  0  0  0  0  0
    0.3977    5.0533   -0.0001 H   0  0  0  0  0  0  0  0  0  0  0  0
   -1.4104    3.8987   -0.0001 C   0  0  0  0  0  0  0  0  0  0  0  0
   -2.0790    4.7724   -0.0001 H   0  0  0  0  0  0  0  0  0  0  0  0
   -1.9907    2.5404   -0.0000 C   0  0  0  0  0  0  0  0  0  0  0  0
   -3.3305    2.7589   -0.0001 C   0  0  0  0  0  2  0  0  0  0  0  0
   -1.1903    1.4253   -0.0000 N   0  0  0  0  0  2  0  0  0  0  0  0
    0.1488    1.6247   -0.0000 C   0  0  0  0  0  0  0  0  0  0  0  0
    0.8080    2.8834   -0.0000 C   0  0  0  0  0  0  0  0  0  0  0  0
  2  1  1  0  0  0  0
  2  3  1  1  0  0  0
  3  4  1  0  0  0  0
  5  3  1  1  0  0  0
  5  7  1  0  0  0  0
  6  5  1  0  0  0  0
  6  7  1  0  0  0  0
  8  2  1  0  0  0  0
  9  8  1  0  0  0  0
 10  8  2  0  0  0  0
 11 10  1  0  0  0  0
 12 20  1  0  0  0  0
 13 12  1  0  0  0  0
 14 12  2  0  0  0  0
 14 16  1  0  0  0  0
 15 14  1  0  0  0  0
 16 18  1  0  0  0  0
 17 16  2  0  0  0  0
 18 19  1  0  0  0  0
 19  1  1  0  0  0  0
 20 10  1  0  0  0  0
 20 19  2  0  0  0  0
M  END
