64,65
 OpenBabel05122313053D

 67 71  0  0  1  0  0  0  0  0999 V2000
    5.7626    1.1548   -0.7115 C   0  0  0  0  0  3  0  0  0  0  0  0
    5.6322    2.2475   -0.6706 H   0  0  0  0  0  0  0  0  0  0  0  0
    6.9550    0.5865   -1.1545 C   0  0  0  0  0  0  0  0  0  0  0  0
    7.7840    1.2367   -1.4710 H   0  0  0  0  0  0  0  0  0  0  0  0
    7.0862   -0.8202   -1.1958 C   0  0  0  0  0  0  0  0  0  0  0  0
    8.3530   -1.4683   -1.6743 C   0  0  0  0  0  0  0  0  0  0  0  0
    9.2191   -1.1327   -1.0676 H   0  0  0  0  0  0  0  0  0  0  0  0
    8.5694   -1.1776   -2.7231 H   0  0  0  0  0  0  0  0  0  0  0  0
    8.3001   -2.5716   -1.6246 H   0  0  0  0  0  0  0  0  0  0  0  0
    5.9770   -1.5754   -0.7742 C   0  0  0  0  0  0  0  0  0  0  0  0
    6.0215   -2.6755   -0.7869 H   0  0  0  0  0  0  0  0  0  0  0  0
    4.8087   -0.9337   -0.3371 C   0  0  0  0  0  0  0  0  0  0  0  0
    3.6141   -1.7237    0.1631 C   0  0  0  0  0  0  0  0  0  0  0  0
    3.4454   -2.5987   -0.5027 H   0  0  0  0  0  0  0  0  0  0  0  0
    3.8692   -2.1509    1.1617 H   0  0  0  0  0  0  0  0  0  0  0  0
    1.2845   -1.4613    0.5439 C   0  0  1  0  0  3  0  0  0  0  0  0
    1.0521   -2.9319    0.8304 C   0  0  0  0  0  0  0  0  0  0  0  0
    1.7512   -3.3140    1.6043 H   0  0  0  0  0  0  0  0  0  0  0  0
    1.2841   -3.5101   -0.0933 H   0  0  0  0  0  0  0  0  0  0  0  0
   -0.4451   -3.0490    1.1919 C   0  0  0  0  0  0  0  0  0  0  0  0
   -0.8758   -4.0193    0.8825 H   0  0  0  0  0  0  0  0  0  0  0  0
   -0.5950   -2.9586    2.2876 H   0  0  0  0  0  0  0  0  0  0  0  0
   -1.0508   -1.8511    0.4477 C   0  0  1  0  0  0  0  0  0  0  0  0
   -0.9786   -2.0991   -0.6396 H   0  0  0  0  0  0  0  0  0  0  0  0
   -2.4957   -1.4119    0.6836 C   0  0  2  0  0  0  0  0  0  0  0  0
   -2.5859   -1.0490    1.7318 H   0  0  0  0  0  0  0  0  0  0  0  0
   -3.4877   -2.5690    0.5012 C   0  0  0  0  0  0  0  0  0  0  0  0
   -3.3180   -3.0244   -0.5015 H   0  0  0  0  0  0  0  0  0  0  0  0
   -3.2821   -3.3666    1.2456 H   0  0  0  0  0  0  0  0  0  0  0  0
   -4.9430   -2.1081    0.6010 C   0  0  0  0  0  0  0  0  0  0  0  0
   -5.6246   -2.9572    0.3843 H   0  0  0  0  0  0  0  0  0  0  0  0
   -5.1740   -1.7909    1.6411 H   0  0  0  0  0  0  0  0  0  0  0  0
   -5.2297   -0.9597   -0.3719 C   0  0  1  0  0  0  0  0  0  0  0  0
   -4.9699   -1.3356   -1.3909 H   0  0  0  0  0  0  0  0  0  0  0  0
   -6.7118   -0.5664   -0.4172 C   0  0  0  0  0  0  0  0  0  0  0  0
   -7.3256   -1.4754   -0.6040 H   0  0  0  0  0  0  0  0  0  0  0  0
   -7.0504   -0.1576    0.5590 H   0  0  0  0  0  0  0  0  0  0  0  0
   -6.9945    0.4796   -1.5028 C   0  0  2  0  0  0  0  0  0  0  0  0
   -6.7539    0.0150   -2.4953 H   0  0  0  0  0  0  0  0  0  0  0  0
   -6.0891    1.6953   -1.3238 C   0  0  0  0  0  0  0  0  0  0  0  0
   -6.4117    2.2225   -0.4009 H   0  0  0  0  0  0  0  0  0  0  0  0
   -6.2623    2.4036   -2.1594 H   0  0  0  0  0  0  0  0  0  0  0  0
   -4.6088    1.3081   -1.2451 C   0  0  0  0  0  0  0  0  0  0  0  0
   -4.2888    0.8825   -2.2234 H   0  0  0  0  0  0  0  0  0  0  0  0
   -4.0045    2.2261   -1.0927 H   0  0  0  0  0  0  0  0  0  0  0  0
   -4.2910    0.2688   -0.1385 C   0  0  1  0  0  0  0  0  0  0  0  0
   -4.5190    0.9081    1.2463 C   0  0  0  0  0  0  0  0  0  0  0  0
   -3.9229    1.8361    1.3582 H   0  0  0  0  0  0  0  0  0  0  0  0
   -4.2452    0.2327    2.0798 H   0  0  0  0  0  0  0  0  0  0  0  0
   -5.5770    1.1920    1.3986 H   0  0  0  0  0  0  0  0  0  0  0  0
   -2.8176   -0.2362   -0.2839 C   0  0  1  0  0  0  0  0  0  0  0  0
   -2.7500   -0.6699   -1.3110 H   0  0  0  0  0  0  0  0  0  0  0  0
   -1.7620    0.8896   -0.2150 C   0  0  0  0  0  0  0  0  0  0  0  0
   -1.8714    1.4456    0.7395 H   0  0  0  0  0  0  0  0  0  0  0  0
   -1.9586    1.6287   -1.0163 H   0  0  0  0  0  0  0  0  0  0  0  0
   -0.3112    0.3978   -0.3511 C   0  0  0  0  0  0  0  0  0  0  0  0
   -0.1446   -0.0130   -1.3702 H   0  0  0  0  0  0  0  0  0  0  0  0
    0.3964    1.2457   -0.2284 H   0  0  0  0  0  0  0  0  0  0  0  0
   -0.0246   -0.7068    0.6745 C   0  0  2  0  0  0  0  0  0  0  0  0
   -0.0271   -0.1407    2.1180 C   0  0  0  0  0  0  0  0  0  0  0  0
    0.1740   -0.9177    2.8813 H   0  0  0  0  0  0  0  0  0  0  0  0
   -0.9939    0.3327    2.3694 H   0  0  0  0  0  0  0  0  0  0  0  0
    0.7691    0.6275    2.1987 H   0  0  0  0  0  0  0  0  0  0  0  0
    4.7068    0.4120   -0.3097 N   0  0  0  0  0  2  0  0  0  0  0  0
    2.4144   -0.8973    0.2641 N   0  0  0  0  0  2  0  0  0  0  0  0
   -8.3341    0.9441   -1.4741 O   0  0  0  0  0  0  0  0  0  0  0  0
   -8.9167    0.1731   -1.5997 H   0  0  0  0  0  0  0  0  0  0  0  0
  1  2  1  0  0  0  0
  1 64  1  0  0  0  0
  3  1  1  0  0  0  0
  4  3  1  0  0  0  0
  5  3  2  0  0  0  0
  5 10  1  0  0  0  0
  6  9  1  0  0  0  0
  6  5  1  0  0  0  0
  6  7  1  0  0  0  0
  8  6  1  0  0  0  0
 10 12  2  0  0  0  0
 11 10  1  0  0  0  0
 12 64  1  0  0  0  0
 12 13  1  0  0  0  0
 13 65  1  0  0  0  0
 13 15  1  0  0  0  0
 14 13  1  0  0  0  0
 16 65  1  1  0  0  0
 16 59  1  0  0  0  0
 16 17  1  0  0  0  0
 17 20  1  0  0  0  0
 17 18  1  0  0  0  0
 19 17  1  0  0  0  0
 20 22  1  0  0  0  0
 21 20  1  0  0  0  0
 23 24  1  6  0  0  0
 23 59  1  0  0  0  0
 23 25  1  0  0  0  0
 23 20  1  0  0  0  0
 25 26  1  1  0  0  0
 27 30  1  0  0  0  0
 27 25  1  0  0  0  0
 27 29  1  0  0  0  0
 28 27  1  0  0  0  0
 30 32  1  0  0  0  0
 31 30  1  0  0  0  0
 33 34  1  6  0  0  0
 33 46  1  0  0  0  0
 33 30  1  0  0  0  0
 35 33  1  0  0  0  0
 35 37  1  0  0  0  0
 36 35  1  0  0  0  0
 38 39  1  6  0  0  0
 38 66  1  0  0  0  0
 38 40  1  0  0  0  0
 38 35  1  0  0  0  0
 40 43  1  0  0  0  0
 40 41  1  0  0  0  0
 42 40  1  0  0  0  0
 43 45  1  0  0  0  0
 43 46  1  0  0  0  0
 44 43  1  0  0  0  0
 46 47  1  1  0  0  0
 47 48  1  0  0  0  0
 47 50  1  0  0  0  0
 47 49  1  0  0  0  0
 51 52  1  6  0  0  0
 51 53  1  0  0  0  0
 51 46  1  0  0  0  0
 51 25  1  0  0  0  0
 53 54  1  0  0  0  0
 55 53  1  0  0  0  0
 56 58  1  0  0  0  0
 56 53  1  0  0  0  0
 56 59  1  0  0  0  0
 57 56  1  0  0  0  0
 59 60  1  1  0  0  0
 60 63  1  0  0  0  0
 60 62  1  0  0  0  0
 60 61  1  0  0  0  0
 67 66  1  0  0  0  0
M  END
