2,3
 OpenBabel05122313053D

 20 21  0  0  0  0  0  0  0  0999 V2000
   -3.3576    2.0861    0.0014 S   0  0  0  0  0  0  0  0  0  0  0  0
    1.7939    0.7813    0.0001 N   0  0  0  0  0  2  0  0  0  0  0  0
   -0.8732    0.8062   -0.0010 N   0  0  0  0  0  2  0  0  0  0  0  0
   -2.8630   -0.4708   -0.0024 N   0  0  0  0  0  0  0  0  0  0  0  0
    3.1375    0.7365    0.0004 C   0  0  0  0  0  3  0  0  0  0  0  0
    3.5962   -0.2622    0.0010 H   0  0  0  0  0  0  0  0  0  0  0  0
    3.9278    1.8937    0.0001 C   0  0  0  0  0  0  0  0  0  0  0  0
    5.0225    1.7979    0.0005 H   0  0  0  0  0  0  0  0  0  0  0  0
    3.3039    3.1515   -0.0006 C   0  0  0  0  0  0  0  0  0  0  0  0
    3.9002    4.0755   -0.0008 H   0  0  0  0  0  0  0  0  0  0  0  0
    1.9081    3.2055   -0.0010 C   0  0  0  0  0  0  0  0  0  0  0  0
    1.3712    4.1650   -0.0016 H   0  0  0  0  0  0  0  0  0  0  0  0
    1.1749    2.0015   -0.0007 C   0  0  0  0  0  0  0  0  0  0  0  0
   -0.2673    1.9678   -0.0011 C   0  0  0  0  0  3  0  0  0  0  0  0
   -0.8298    2.9200   -0.0015 H   0  0  0  0  0  0  0  0  0  0  0  0
   -2.2480    0.6893   -0.0009 C   0  0  0  0  0  0  0  0  0  0  0  0
   -4.2153   -0.3283   -0.0020 C   0  0  0  0  0  0  0  0  0  0  0  0
   -4.8576   -1.2201   -0.0032 H   0  0  0  0  0  0  0  0  0  0  0  0
   -4.6806    0.9768   -0.0002 C   0  0  0  0  0  0  0  0  0  0  0  0
   -5.7168    1.3371    0.0006 H   0  0  0  0  0  0  0  0  0  0  0  0
  2  5  1  0  0  0  0
  3 16  1  0  0  0  0
  4 17  1  0  0  0  0
  4 16  2  0  0  0  0
  5  6  1  0  0  0  0
  7  5  1  0  0  0  0
  7  8  1  0  0  0  0
  9  7  2  0  0  0  0
 10  9  1  0  0  0  0
 11 13  2  0  0  0  0
 11  9  1  0  0  0  0
 12 11  1  0  0  0  0
 13  2  1  0  0  0  0
 14  3  1  0  0  0  0
 14 13  1  0  0  0  0
 15 14  1  0  0  0  0
 16  1  1  0  0  0  0
 17 19  2  0  0  0  0
 18 17  1  0  0  0  0
 19 20  1  0  0  0  0
 19  1  1  0  0  0  0
M  END
