1,4
 OpenBabel05122313053D

 46 49  0  0  0  0  0  0  0  0999 V2000
    3.8639    0.1930    0.4940 N   0  0  0  0  0  2  0  0  0  0  0  0
    5.0142   -0.4229    0.8364 C   0  0  0  0  0  3  0  0  0  0  0  0
    4.9768   -1.5207    0.8547 H   0  0  0  0  0  0  0  0  0  0  0  0
    0.6759   -2.1873   -0.3459 N   0  0  0  0  0  2  0  0  0  0  0  0
    6.1841    0.2839    1.1285 C   0  0  0  0  0  0  0  0  0  0  0  0
    7.0925   -0.2664    1.4093 H   0  0  0  0  0  0  0  0  0  0  0  0
    6.1662    1.6844    1.0429 C   0  0  0  0  0  0  0  0  0  0  0  0
    7.0700    2.2728    1.2603 H   0  0  0  0  0  0  0  0  0  0  0  0
    4.9827    2.3240    0.6716 C   0  0  0  0  0  0  0  0  0  0  0  0
    4.9196    3.4167    0.5835 H   0  0  0  0  0  0  0  0  0  0  0  0
    3.8238    1.5579    0.4009 C   0  0  0  0  0  0  0  0  0  0  0  0
    2.6035    2.1753    0.0257 C   0  0  0  0  0  0  0  0  0  0  0  0
    1.5405    2.7188   -0.2710 C   0  0  0  0  0  0  0  0  0  0  0  0
    0.2383    3.2101   -0.5644 C   0  0  0  0  0  0  0  0  0  0  0  0
    0.0352    4.4431   -1.2332 C   0  0  0  0  0  0  0  0  0  0  0  0
    0.9052    5.0468   -1.5279 H   0  0  0  0  0  0  0  0  0  0  0  0
   -1.2665    4.8746   -1.5163 C   0  0  0  0  0  0  0  0  0  0  0  0
   -1.4233    5.8320   -2.0354 H   0  0  0  0  0  0  0  0  0  0  0  0
   -2.3711    4.0952   -1.1533 C   0  0  0  0  0  0  0  0  0  0  0  0
   -3.3919    4.4291   -1.3880 H   0  0  0  0  0  0  0  0  0  0  0  0
   -2.1888    2.8547   -0.4846 C   0  0  0  0  0  0  0  0  0  0  0  0
   -0.8764    2.4267   -0.1804 C   0  0  0  0  0  0  0  0  0  0  0  0
   -0.6972    1.4967    0.3789 H   0  0  0  0  0  0  0  0  0  0  0  0
   -3.3153    2.0465   -0.1543 C   0  0  0  0  0  0  0  0  0  0  0  0
   -4.3021    1.3476    0.0817 C   0  0  0  0  0  0  0  0  0  0  0  0
   -5.4463    0.5414    0.3279 C   0  0  0  0  0  0  0  0  0  0  0  0
   -6.7062    1.1376    0.5776 C   0  0  0  0  0  0  0  0  0  0  0  0
   -6.7731    2.2349    0.5900 H   0  0  0  0  0  0  0  0  0  0  0  0
   -7.8417    0.3540    0.8058 C   0  0  0  0  0  0  0  0  0  0  0  0
   -8.8094    0.8402    1.0002 H   0  0  0  0  0  0  0  0  0  0  0  0
   -7.7477   -1.0494    0.7865 C   0  0  0  0  0  0  0  0  0  0  0  0
   -8.6407   -1.6665    0.9654 H   0  0  0  0  0  0  0  0  0  0  0  0
   -6.5168   -1.6645    0.5392 C   0  0  0  0  0  0  0  0  0  0  0  0
   -6.4330   -2.7605    0.5214 H   0  0  0  0  0  0  0  0  0  0  0  0
   -5.3517   -0.8934    0.3092 C   0  0  0  0  0  0  0  0  0  0  0  0
   -4.1036   -1.5213    0.0575 C   0  0  0  0  0  0  0  0  0  0  0  0
   -3.0097   -2.0437   -0.1604 C   0  0  0  0  0  0  0  0  0  0  0  0
   -1.7124   -2.5778   -0.3813 C   0  0  0  0  0  0  0  0  0  0  0  0
   -1.4829   -3.9111   -0.7990 C   0  0  0  0  0  0  0  0  0  0  0  0
   -2.3351   -4.5842   -0.9705 H   0  0  0  0  0  0  0  0  0  0  0  0
   -0.1674   -4.3422   -0.9888 C   0  0  0  0  0  0  0  0  0  0  0  0
    0.0512   -5.3679   -1.3179 H   0  0  0  0  0  0  0  0  0  0  0  0
    0.8940   -3.4592   -0.7614 C   0  0  0  0  0  3  0  0  0  0  0  0
    1.9459   -3.7272   -0.9360 H   0  0  0  0  0  0  0  0  0  0  0  0
   -0.5842   -1.7506   -0.1633 C   0  0  0  0  0  0  0  0  0  0  0  0
   -0.6995   -0.7248    0.2070 H   0  0  0  0  0  0  0  0  0  0  0  0
  1  2  1  0  0  0  0
  2  3  1  0  0  0  0
  2  5  1  0  0  0  0
  4 45  1  0  0  0  0
  5  6  1  0  0  0  0
  7  5  2  0  0  0  0
  7  8  1  0  0  0  0
  9  7  1  0  0  0  0
 10  9  1  0  0  0  0
 11  1  1  0  0  0  0
 11  9  2  0  0  0  0
 12 11  1  0  0  0  0
 13 12  3  0  0  0  0
 14 13  1  0  0  0  0
 14 22  1  0  0  0  0
 15 14  2  0  0  0  0
 16 15  1  0  0  0  0
 17 15  1  0  0  0  0
 17 19  2  0  0  0  0
 18 17  1  0  0  0  0
 19 21  1  0  0  0  0
 20 19  1  0  0  0  0
 21 22  2  0  0  0  0
 21 24  1  0  0  0  0
 22 23  1  0  0  0  0
 24 25  3  0  0  0  0
 25 26  1  0  0  0  0
 26 27  1  0  0  0  0
 27 28  1  0  0  0  0
 27 29  2  0  0  0  0
 29 30  1  0  0  0  0
 31 29  1  0  0  0  0
 31 32  1  0  0  0  0
 33 31  2  0  0  0  0
 34 33  1  0  0  0  0
 35 26  2  0  0  0  0
 35 33  1  0  0  0  0
 36 35  1  0  0  0  0
 37 36  3  0  0  0  0
 38 45  2  0  0  0  0
 38 37  1  0  0  0  0
 39 38  1  0  0  0  0
 40 39  1  0  0  0  0
 41 39  2  0  0  0  0
 41 43  1  0  0  0  0
 42 41  1  0  0  0  0
 43  4  1  0  0  0  0
 44 43  1  0  0  0  0
 45 46  1  0  0  0  0
M  END
