3,5
 OpenBabel05122313053D

 40 42  0  0  0  0  0  0  0  0999 V2000
   -0.5793    1.0034    1.5139 O   0  0  0  0  0  0  0  0  0  0  0  0
   -0.7292    0.5938   -1.8596 O   0  0  0  0  0  0  0  0  0  0  0  0
    1.9245    1.2585   -0.1273 N   0  0  0  0  0  2  0  0  0  0  0  0
    1.3729    2.1253    0.7457 N   0  0  0  0  0  0  0  0  0  0  0  0
    0.1952   -1.5993    0.1431 N   0  0  0  0  0  2  0  0  0  0  0  0
   -0.7323   -1.5841   -0.8389 N   0  0  0  0  0  0  0  0  0  0  0  0
    2.4325    1.9854   -1.1320 C   0  0  0  0  0  3  0  0  0  0  0  0
    2.1989    3.3614   -0.9046 C   0  0  0  0  0  0  0  0  0  0  0  0
    1.5098    3.4102    0.3060 C   0  0  0  0  0  0  0  0  0  0  0  0
   -0.3112   -2.3254    1.1479 C   0  0  0  0  0  3  0  0  0  0  0  0
   -1.6003   -2.7961    0.8071 C   0  0  0  0  0  0  0  0  0  0  0  0
   -1.8345   -2.2995   -0.4721 C   0  0  0  0  0  0  0  0  0  0  0  0
    0.6132    1.6230    1.8917 C   0  0  0  0  0  0  0  0  0  0  0  0
   -1.5079    1.8627    0.8536 C   0  0  0  0  0  0  0  0  0  0  0  0
   -0.5056   -0.7790   -2.0376 C   0  0  0  0  0  0  0  0  0  0  0  0
   -2.0738    1.0481   -2.0095 C   0  0  0  0  0  0  0  0  0  0  0  0
   -3.0105    0.6985   -0.8668 C   0  0  0  0  0  0  0  0  0  0  0  0
   -4.1932   -0.0140   -1.1463 C   0  0  0  0  0  0  0  0  0  0  0  0
   -5.0739   -0.3966   -0.1252 C   0  0  0  0  0  0  0  0  0  0  0  0
   -4.7729   -0.0707    1.2055 C   0  0  0  0  0  0  0  0  0  0  0  0
   -3.6123    0.6599    1.4926 C   0  0  0  0  0  0  0  0  0  0  0  0
   -2.7316    1.0657    0.4728 C   0  0  0  0  0  0  0  0  0  0  0  0
    2.9381    1.4551   -1.9500 H   0  0  0  0  0  0  0  0  0  0  0  0
    2.4977    4.2066   -1.5322 H   0  0  0  0  0  0  0  0  0  0  0  0
    1.1152    4.2492    0.8900 H   0  0  0  0  0  0  0  0  0  0  0  0
    0.2996   -2.4583    2.0505 H   0  0  0  0  0  0  0  0  0  0  0  0
   -2.2698   -3.4193    1.4075 H   0  0  0  0  0  0  0  0  0  0  0  0
   -2.6969   -2.3895   -1.1394 H   0  0  0  0  0  0  0  0  0  0  0  0
    0.4495    2.5034    2.5572 H   0  0  0  0  0  0  0  0  0  0  0  0
    1.2322    0.8470    2.3922 H   0  0  0  0  0  0  0  0  0  0  0  0
   -1.8012    2.6925    1.5442 H   0  0  0  0  0  0  0  0  0  0  0  0
   -1.0373    2.3222   -0.0405 H   0  0  0  0  0  0  0  0  0  0  0  0
   -1.1538   -1.2056   -2.8356 H   0  0  0  0  0  0  0  0  0  0  0  0
    0.5679   -0.9038   -2.3010 H   0  0  0  0  0  0  0  0  0  0  0  0
   -1.9856    2.1490   -2.1204 H   0  0  0  0  0  0  0  0  0  0  0  0
   -2.5032    0.6583   -2.9622 H   0  0  0  0  0  0  0  0  0  0  0  0
   -4.4182   -0.2840   -2.1911 H   0  0  0  0  0  0  0  0  0  0  0  0
   -5.9906   -0.9552   -0.3679 H   0  0  0  0  0  0  0  0  0  0  0  0
   -5.4472   -0.3772    2.0192 H   0  0  0  0  0  0  0  0  0  0  0  0
   -3.3766    0.9291    2.5339 H   0  0  0  0  0  0  0  0  0  0  0  0
  1 13  1  0  0  0  0
  3  4  1  0  0  0  0
  4 13  1  0  0  0  0
  5 10  1  0  0  0  0
  6 12  1  0  0  0  0
  6  5  1  0  0  0  0
  7  8  1  0  0  0  0
  7  3  1  0  0  0  0
  8  9  2  0  0  0  0
  9  4  1  0  0  0  0
  9 25  1  0  0  0  0
 10 26  1  0  0  0  0
 11 10  1  0  0  0  0
 11 27  1  0  0  0  0
 12 11  2  0  0  0  0
 13 30  1  0  0  0  0
 13 29  1  0  0  0  0
 14  1  1  0  0  0  0
 14 31  1  0  0  0  0
 15  2  1  0  0  0  0
 15  6  1  0  0  0  0
 16  2  1  0  0  0  0
 16 17  1  0  0  0  0
 17 22  1  0  0  0  0
 18 17  2  0  0  0  0
 18 19  1  0  0  0  0
 19 20  2  0  0  0  0
 20 21  1  0  0  0  0
 20 39  1  0  0  0  0
 21 40  1  0  0  0  0
 22 14  1  0  0  0  0
 22 21  2  0  0  0  0
 23  7  1  0  0  0  0
 24  8  1  0  0  0  0
 28 12  1  0  0  0  0
 32 14  1  0  0  0  0
 33 15  1  0  0  0  0
 34 15  1  0  0  0  0
 35 16  1  0  0  0  0
 36 16  1  0  0  0  0
 37 18  1  0  0  0  0
 38 19  1  0  0  0  0
M  END
