1,2
 OpenBabel05122313053D

 32 34  0  0  0  0  0  0  0  0999 V2000
    2.0266    0.4860    0.0316 N   0  0  0  0  0  2  0  0  0  0  0  0
   -0.6682    0.6173    0.0073 N   0  0  0  0  0  2  0  0  0  0  0  0
   -6.3229    0.2824    0.1150 N   0  0  0  0  0  0  0  0  0  0  0  0
   -6.9367    1.1725    0.7035 O   0  0  0  0  0  0  0  0  0  0  0  0
   -6.8342   -0.6789   -0.4564 O   0  0  0  0  0  0  0  0  0  0  0  0
    1.4620    1.6868   -0.1477 C   0  0  0  0  0  0  0  0  0  0  0  0
    2.2329    2.8684   -0.3281 C   0  0  0  0  0  0  0  0  0  0  0  0
    1.7268    3.8334   -0.4768 H   0  0  0  0  0  0  0  0  0  0  0  0
    3.6150    2.7703   -0.3188 C   0  0  0  0  0  0  0  0  0  0  0  0
    4.2427    3.6624   -0.4675 H   0  0  0  0  0  0  0  0  0  0  0  0
    4.2372    1.5088   -0.1083 C   0  0  0  0  0  0  0  0  0  0  0  0
    5.6480    1.3262   -0.0708 C   0  0  0  0  0  3  0  0  0  0  0  0
    6.3031    2.1975   -0.2226 H   0  0  0  0  0  0  0  0  0  0  0  0
    6.1815    0.0665    0.1583 C   0  0  0  0  0  0  0  0  0  0  0  0
    7.2730   -0.0693    0.1869 H   0  0  0  0  0  0  0  0  0  0  0  0
    5.3306   -1.0554    0.3700 C   0  0  0  0  0  0  0  0  0  0  0  0
    5.7750   -2.0413    0.5720 H   0  0  0  0  0  0  0  0  0  0  0  0
    3.9524   -0.9217    0.3346 C   0  0  0  0  0  0  0  0  0  0  0  0
    3.2748   -1.7657    0.5424 H   0  0  0  0  0  0  0  0  0  0  0  0
    3.3803    0.3595    0.0815 C   0  0  0  0  0  0  0  0  0  0  0  0
   -0.0064    1.7173   -0.1541 C   0  0  0  0  0  3  0  0  0  0  0  0
   -0.5118    2.6892   -0.3291 H   0  0  0  0  0  0  0  0  0  0  0  0
   -2.0708    0.5704    0.0436 C   0  0  0  0  0  0  0  0  0  0  0  0
   -2.7097   -0.5255   -0.5833 C   0  0  0  0  0  0  0  0  0  0  0  0
   -2.0848   -1.2675   -1.1086 H   0  0  0  0  0  0  0  0  0  0  0  0
   -4.1028   -0.6135   -0.5684 C   0  0  0  0  0  0  0  0  0  0  0  0
   -4.6358   -1.4408   -1.0554 H   0  0  0  0  0  0  0  0  0  0  0  0
   -4.8413    0.3799    0.0904 C   0  0  0  0  0  0  0  0  0  0  0  0
   -4.2271    1.4610    0.7370 C   0  0  0  0  0  0  0  0  0  0  0  0
   -4.8556    2.1972    1.2553 H   0  0  0  0  0  0  0  0  0  0  0  0
   -2.8342    1.5580    0.7104 C   0  0  0  0  0  0  0  0  0  0  0  0
   -2.3286    2.3758    1.2446 H   0  0  0  0  0  0  0  0  0  0  0  0
  1 20  1  0  0  0  0
  2 23  1  0  0  0  0
  3  4  2  0  0  0  0
  5  3  2  0  0  0  0
  6  1  1  0  0  0  0
  7  9  1  0  0  0  0
  7  6  2  0  0  0  0
  8  7  1  0  0  0  0
  9 11  2  0  0  0  0
 10  9  1  0  0  0  0
 11 12  1  0  0  0  0
 11 20  1  0  0  0  0
 12 14  1  0  0  0  0
 13 12  1  0  0  0  0
 14 15  1  0  0  0  0
 14 16  2  0  0  0  0
 16 17  1  0  0  0  0
 18 16  1  0  0  0  0
 18 19  1  0  0  0  0
 20 18  2  0  0  0  0
 21  6  1  0  0  0  0
 21  2  1  0  0  0  0
 22 21  1  0  0  0  0
 23 31  1  0  0  0  0
 24 26  1  0  0  0  0
 24 23  2  0  0  0  0
 25 24  1  0  0  0  0
 26 28  2  0  0  0  0
 27 26  1  0  0  0  0
 28  3  1  0  0  0  0
 28 29  1  0  0  0  0
 29 30  1  0  0  0  0
 31 29  2  0  0  0  0
 31 32  1  0  0  0  0
M  END
