1,2
 OpenBabel05122313053D

 30 30  0  0  0  0  0  0  0  0999 V2000
    1.5732    0.9614   -0.4184 N   0  0  0  0  0  2  0  0  0  0  0  0
    0.6026   -1.2959   -1.2354 N   0  0  0  0  0  2  0  0  0  0  0  0
    0.4250    3.0104   -1.0422 C   0  0  0  0  0  0  0  0  0  0  0  0
   -0.4422    2.3974   -1.3272 H   0  0  0  0  0  0  0  0  0  0  0  0
    4.6777    0.2517    1.5427 F   0  0  0  0  0  0  0  0  0  0  0  0
    1.5907    2.3782   -0.5661 C   0  0  0  0  0  0  0  0  0  0  0  0
   -0.3372   -1.8980   -2.1756 C   0  0  0  0  0  0  0  0  0  0  0  0
    0.0513   -1.8288   -3.2133 H   0  0  0  0  0  0  0  0  0  0  0  0
   -1.3043   -1.3681   -2.1298 H   0  0  0  0  0  0  0  0  0  0  0  0
   -0.5212   -2.9692   -1.9491 H   0  0  0  0  0  0  0  0  0  0  0  0
    2.6734    4.5393   -0.3505 C   0  0  0  0  0  0  0  0  0  0  0  0
    3.5566    5.1379   -0.0800 H   0  0  0  0  0  0  0  0  0  0  0  0
    0.3836    4.4066   -1.1542 C   0  0  0  0  0  0  0  0  0  0  0  0
   -0.5301    4.8932   -1.5277 H   0  0  0  0  0  0  0  0  0  0  0  0
    4.5465   -2.6306   -0.1414 O   0  0  0  0  0  0  0  0  0  0  0  0
    2.7215    0.3916   -0.3921 N   0  0  0  0  0  2  0  0  0  0  0  0
    1.8395   -1.7511   -1.1640 C   0  0  0  0  0  0  0  0  0  0  0  0
    2.7290    3.1458   -0.2374 C   0  0  0  0  0  0  0  0  0  0  0  0
    3.6338    2.6293    0.1107 H   0  0  0  0  0  0  0  0  0  0  0  0
    5.5386    0.5231   -0.4571 F   0  0  0  0  0  0  0  0  0  0  0  0
    2.8592   -0.9488   -0.4956 C   0  0  0  0  0  0  0  0  0  0  0  0
    6.3059   -1.0256    0.8645 F   0  0  0  0  0  0  0  0  0  0  0  0
    4.1777   -1.4586   -0.1117 C   0  0  0  0  0  0  0  0  0  0  0  0
    1.5033    5.1774   -0.8014 C   0  0  0  0  0  0  0  0  0  0  0  0
    1.4690    6.2738   -0.8861 H   0  0  0  0  0  0  0  0  0  0  0  0
    2.2255   -2.9978   -1.9136 C   0  0  0  0  0  0  0  0  0  0  0  0
    1.5300   -3.8227   -1.6535 H   0  0  0  0  0  0  0  0  0  0  0  0
    3.2522   -3.3069   -1.6626 H   0  0  0  0  0  0  0  0  0  0  0  0
    2.1359   -2.8327   -3.0086 H   0  0  0  0  0  0  0  0  0  0  0  0
    5.1882   -0.4024    0.4654 C   0  0  0  0  0  0  0  0  0  0  0  0
  1 16  1  0  0  0  0
  2 17  1  0  0  0  0
  3  6  1  0  0  0  0
  4  3  1  0  0  0  0
  6  1  1  0  0  0  0
  6 18  2  0  0  0  0
  7  9  1  0  0  0  0
  7 10  1  0  0  0  0
  7  2  1  0  0  0  0
  8  7  1  0  0  0  0
 11 18  1  0  0  0  0
 11 12  1  0  0  0  0
 13  3  2  0  0  0  0
 13 24  1  0  0  0  0
 14 13  1  0  0  0  0
 15 23  2  0  0  0  0
 17 21  2  0  0  0  0
 18 19  1  0  0  0  0
 20 30  1  0  0  0  0
 21 16  1  0  0  0  0
 21 23  1  0  0  0  0
 23 30  1  0  0  0  0
 24 11  2  0  0  0  0
 25 24  1  0  0  0  0
 26 28  1  0  0  0  0
 26 27  1  0  0  0  0
 26 17  1  0  0  0  0
 29 26  1  0  0  0  0
 30 22  1  0  0  0  0
 30  5  1  0  0  0  0
M  END
