1,2
 OpenBabel05122313053D

 22 22  0  0  1  0  0  0  0  0999 V2000
    0.6763    1.5221   -0.7369 N   0  0  0  0  0  0  0  0  0  0  0  0
    0.6763   -1.5221   -0.7369 N   0  0  0  0  0  0  0  0  0  0  0  0
    2.1234    1.2951   -0.4703 C   0  0  2  0  0  0  0  0  0  0  0  0
    2.5961   -0.0000   -1.1561 C   0  0  0  0  0  0  0  0  0  0  0  0
    2.1234   -1.2951   -0.4703 C   0  0  1  0  0  0  0  0  0  0  0  0
    2.4350   -1.2718    1.0361 C   0  0  0  0  0  0  0  0  0  0  0  0
    1.9703    0.0000    1.7581 C   0  0  0  0  0  0  0  0  0  0  0  0
    2.4350    1.2719    1.0361 C   0  0  0  0  0  0  0  0  0  0  0  0
    0.5308    1.7288   -1.7376 H   0  0  0  0  0  0  0  0  0  0  0  0
    0.2969    2.3426   -0.2230 H   0  0  0  0  0  0  0  0  0  0  0  0
    0.2969   -2.3426   -0.2230 H   0  0  0  0  0  0  0  0  0  0  0  0
    0.5307   -1.7288   -1.7375 H   0  0  0  0  0  0  0  0  0  0  0  0
    2.6816    2.1444   -0.9246 H   0  0  0  0  0  0  0  0  0  0  0  0
    2.2977   -0.0000   -2.2276 H   0  0  0  0  0  0  0  0  0  0  0  0
    3.7054    0.0000   -1.1478 H   0  0  0  0  0  0  0  0  0  0  0  0
    2.6816   -2.1444   -0.9246 H   0  0  0  0  0  0  0  0  0  0  0  0
    1.9994   -2.1723    1.5182 H   0  0  0  0  0  0  0  0  0  0  0  0
    3.5381   -1.3732    1.1307 H   0  0  0  0  0  0  0  0  0  0  0  0
    0.8602   -0.0000    1.8315 H   0  0  0  0  0  0  0  0  0  0  0  0
    2.3606    0.0000    2.7964 H   0  0  0  0  0  0  0  0  0  0  0  0
    3.5380    1.3733    1.1307 H   0  0  0  0  0  0  0  0  0  0  0  0
    1.9994    2.1723    1.5182 H   0  0  0  0  0  0  0  0  0  0  0  0
  1  3  1  0  0  0  0
  1 10  1  0  0  0  0
  2  5  1  0  0  0  0
  2 11  1  0  0  0  0
  3 13  1  6  0  0  0
  3  8  1  0  0  0  0
  4 15  1  0  0  0  0
  4  3  1  0  0  0  0
  4  5  1  0  0  0  0
  5 16  1  6  0  0  0
  5  6  1  0  0  0  0
  6 18  1  0  0  0  0
  6 17  1  0  0  0  0
  6  7  1  0  0  0  0
  7 19  1  0  0  0  0
  7 20  1  0  0  0  0
  8 21  1  0  0  0  0
  8 22  1  0  0  0  0
  8  7  1  0  0  0  0
  9  1  1  0  0  0  0
 12  2  1  0  0  0  0
 14  4  1  0  0  0  0
M  END
