3,5
 OpenBabel05122313053D

 41 42  0  0  1  0  0  0  0  0999 V2000
   -6.2154   -2.7572    0.6764 Cl  0  0  0  0  0  0  0  0  0  0  0  0
    6.2577   -2.6121   -0.6723 Cl  0  0  0  0  0  0  0  0  0  0  0  0
   -1.3929    1.7525   -0.3217 N   0  0  0  0  0  0  0  0  0  0  0  0
   -1.9311    1.7968    0.5584 H   0  0  0  0  0  0  0  0  0  0  0  0
    1.4322    1.9043    0.2194 N   0  0  0  0  0  0  0  0  0  0  0  0
    1.8743    1.9688   -0.7100 H   0  0  0  0  0  0  0  0  0  0  0  0
   -2.3008    1.3660   -1.4331 C   0  0  0  0  0  0  0  0  0  0  0  0
   -1.6608    0.9609   -2.2447 H   0  0  0  0  0  0  0  0  0  0  0  0
   -2.8504    2.2523   -1.8203 H   0  0  0  0  0  0  0  0  0  0  0  0
   -3.2896    0.3277   -0.9607 C   0  0  0  0  0  0  0  0  0  0  0  0
   -4.5585    0.7186   -0.4900 C   0  0  0  0  0  0  0  0  0  0  0  0
   -4.8503    1.7811   -0.5237 H   0  0  0  0  0  0  0  0  0  0  0  0
   -5.4662   -0.2225    0.0138 C   0  0  0  0  0  0  0  0  0  0  0  0
   -6.4584    0.0813    0.3754 H   0  0  0  0  0  0  0  0  0  0  0  0
   -5.0943   -1.5762    0.0508 C   0  0  0  0  0  0  0  0  0  0  0  0
   -3.8347   -1.9896   -0.4128 C   0  0  0  0  0  0  0  0  0  0  0  0
   -3.5620   -3.0535   -0.3775 H   0  0  0  0  0  0  0  0  0  0  0  0
   -2.9387   -1.0374   -0.9150 C   0  0  0  0  0  0  0  0  0  0  0  0
   -1.9491   -1.3543   -1.2847 H   0  0  0  0  0  0  0  0  0  0  0  0
    2.4836    1.7247    1.2501 C   0  0  0  0  0  0  0  0  0  0  0  0
    3.0243    2.6834    1.4239 H   0  0  0  0  0  0  0  0  0  0  0  0
    1.9603    1.4379    2.1862 H   0  0  0  0  0  0  0  0  0  0  0  0
    3.4520    0.6475    0.8278 C   0  0  0  0  0  0  0  0  0  0  0  0
    4.6518    0.9795    0.1699 C   0  0  0  0  0  0  0  0  0  0  0  0
    4.9181    2.0386    0.0203 H   0  0  0  0  0  0  0  0  0  0  0  0
    5.5231   -0.0160   -0.2926 C   0  0  0  0  0  0  0  0  0  0  0  0
    6.4621    0.2420   -0.8016 H   0  0  0  0  0  0  0  0  0  0  0  0
    5.1829   -1.3643   -0.0973 C   0  0  0  0  0  0  0  0  0  0  0  0
    3.9924   -1.7195    0.5578 C   0  0  0  0  0  0  0  0  0  0  0  0
    3.7433   -2.7799    0.7017 H   0  0  0  0  0  0  0  0  0  0  0  0
    3.1346   -0.7134    1.0177 C   0  0  0  0  0  0  0  0  0  0  0  0
    2.2011   -0.9842    1.5388 H   0  0  0  0  0  0  0  0  0  0  0  0
   -0.6530    3.0227   -0.5146 C   0  0  2  0  0  0  0  0  0  0  0  0
   -0.2580    2.9869   -1.5549 H   0  0  0  0  0  0  0  0  0  0  0  0
    0.5418    3.0472    0.4514 C   0  0  0  0  0  0  0  0  0  0  0  0
    1.0759    4.0219    0.3698 H   0  0  0  0  0  0  0  0  0  0  0  0
    0.1675    2.9633    1.4951 H   0  0  0  0  0  0  0  0  0  0  0  0
   -1.5278    4.2662   -0.3463 C   0  0  0  0  0  0  0  0  0  0  0  0
   -2.3997    4.2457   -1.0287 H   0  0  0  0  0  0  0  0  0  0  0  0
   -0.9558    5.1896   -0.5655 H   0  0  0  0  0  0  0  0  0  0  0  0
   -1.9063    4.3401    0.6948 H   0  0  0  0  0  0  0  0  0  0  0  0
  2 28  1  0  0  0  0
  3  4  1  0  0  0  0
  5 35  1  0  0  0  0
  5 20  1  0  0  0  0
  6  5  1  0  0  0  0
  7 10  1  0  0  0  0
  7  3  1  0  0  0  0
  8  7  1  0  0  0  0
  9  7  1  0  0  0  0
 10 18  2  0  0  0  0
 10 11  1  0  0  0  0
 11 13  2  0  0  0  0
 12 11  1  0  0  0  0
 13 15  1  0  0  0  0
 13 14  1  0  0  0  0
 15  1  1  0  0  0  0
 16 17  1  0  0  0  0
 16 15  2  0  0  0  0
 18 16  1  0  0  0  0
 19 18  1  0  0  0  0
 20 21  1  0  0  0  0
 20 22  1  0  0  0  0
 23 31  1  0  0  0  0
 23 20  1  0  0  0  0
 24 23  2  0  0  0  0
 25 24  1  0  0  0  0
 26 28  2  0  0  0  0
 26 24  1  0  0  0  0
 27 26  1  0  0  0  0
 28 29  1  0  0  0  0
 29 30  1  0  0  0  0
 29 31  2  0  0  0  0
 31 32  1  0  0  0  0
 33 34  1  6  0  0  0
 33 38  1  0  0  0  0
 33  3  1  0  0  0  0
 33 35  1  0  0  0  0
 35 37  1  0  0  0  0
 36 35  1  0  0  0  0
 38 41  1  0  0  0  0
 39 38  1  0  0  0  0
 40 38  1  0  0  0  0
M  END
