3,4
 OpenBabel05122313053D

 60 65  0  0  1  0  0  0  0  0999 V2000
    7.4488   -3.3012   -0.4182 O   0  0  0  0  0  0  0  0  0  0  0  0
   -7.5662   -3.2710   -0.4958 O   0  0  0  0  0  0  0  0  0  0  0  0
   -1.3451    0.9043   -0.2356 N   0  0  0  0  0  2  0  0  0  0  0  0
    1.3156    0.9074   -0.3898 N   0  0  0  0  0  2  0  0  0  0  0  0
    7.1304   -4.2556    0.5848 C   0  0  0  0  0  0  0  0  0  0  0  0
    7.3993   -3.8884    1.5996 H   0  0  0  0  0  0  0  0  0  0  0  0
    7.7295   -5.1556    0.3572 H   0  0  0  0  0  0  0  0  0  0  0  0
    6.0506   -4.5212    0.5671 H   0  0  0  0  0  0  0  0  0  0  0  0
    6.8286   -2.1027   -0.3980 C   0  0  0  0  0  0  0  0  0  0  0  0
    7.1637   -1.2097   -1.4436 C   0  0  0  0  0  0  0  0  0  0  0  0
    7.8946   -1.5407   -2.1950 H   0  0  0  0  0  0  0  0  0  0  0  0
    6.5622    0.0437   -1.5213 C   0  0  0  0  0  0  0  0  0  0  0  0
    6.8138    0.7119   -2.3587 H   0  0  0  0  0  0  0  0  0  0  0  0
    5.5984    0.4556   -0.5671 C   0  0  0  0  0  0  0  0  0  0  0  0
    5.2979   -0.4348    0.4878 C   0  0  0  0  0  0  0  0  0  0  0  0
    4.6041   -0.1180    1.2822 H   0  0  0  0  0  0  0  0  0  0  0  0
    5.8944   -1.6979    0.5813 C   0  0  0  0  0  0  0  0  0  0  0  0
    5.6325   -2.3564    1.4193 H   0  0  0  0  0  0  0  0  0  0  0  0
    4.9462    1.7783   -0.6785 C   0  0  1  0  0  3  0  0  0  0  0  0
    5.6992    2.9380   -0.8946 C   0  0  0  0  0  0  0  0  0  0  0  0
    6.7932    2.8522   -0.9717 H   0  0  0  0  0  0  0  0  0  0  0  0
    5.0976    4.2183   -0.9675 C   0  0  0  0  0  0  0  0  0  0  0  0
    5.7363    5.1010   -1.1216 H   0  0  0  0  0  0  0  0  0  0  0  0
    3.7250    4.3768   -0.8212 C   0  0  0  0  0  0  0  0  0  0  0  0
    3.2633    5.3746   -0.8564 H   0  0  0  0  0  0  0  0  0  0  0  0
    2.9062    3.2315   -0.6343 C   0  0  0  0  0  0  0  0  0  0  0  0
    3.5150    1.9241   -0.5856 C   0  0  0  0  0  0  0  0  0  0  0  0
    2.6441    0.8104   -0.5016 C   0  0  0  0  0  0  0  0  0  0  0  0
    3.0567   -0.2065   -0.5484 H   0  0  0  0  0  0  0  0  0  0  0  0
    0.7185    2.1582   -0.3893 C   0  0  0  0  0  0  0  0  0  0  0  0
    1.4920    3.3053   -0.5210 C   0  0  0  0  0  0  0  0  0  0  0  0
    1.0124    4.2930   -0.5581 H   0  0  0  0  0  0  0  0  0  0  0  0
   -0.7526    2.1565   -0.2951 C   0  0  1  0  0  3  0  0  0  0  0  0
   -1.5348    3.3044   -0.2670 C   0  0  0  0  0  0  0  0  0  0  0  0
   -1.0606    4.2954   -0.2734 H   0  0  0  0  0  0  0  0  0  0  0  0
   -2.9527    3.2294   -0.2230 C   0  0  0  0  0  0  0  0  0  0  0  0
   -3.5551    1.9181   -0.2515 C   0  0  0  0  0  0  0  0  0  0  0  0
   -2.6783    0.8061   -0.2196 C   0  0  0  0  0  0  0  0  0  0  0  0
   -3.0929   -0.2100   -0.1621 H   0  0  0  0  0  0  0  0  0  0  0  0
   -3.7819    4.3789   -0.1395 C   0  0  0  0  0  0  0  0  0  0  0  0
   -3.3241    5.3790   -0.1250 H   0  0  0  0  0  0  0  0  0  0  0  0
   -5.1610    4.2219   -0.0737 C   0  0  0  0  0  0  0  0  0  0  0  0
   -5.8095    5.1081   -0.0038 H   0  0  0  0  0  0  0  0  0  0  0  0
   -5.7549    2.9376   -0.1271 C   0  0  0  0  0  0  0  0  0  0  0  0
   -6.8515    2.8518   -0.1194 H   0  0  0  0  0  0  0  0  0  0  0  0
   -4.9893    1.7710   -0.2434 C   0  0  0  0  0  0  0  0  0  0  0  0
   -5.6382    0.4460   -0.3389 C   0  0  0  0  0  0  0  0  0  0  0  0
   -6.6844    0.0922    0.5505 C   0  0  0  0  0  0  0  0  0  0  0  0
   -6.9917    0.8019    1.3337 H   0  0  0  0  0  0  0  0  0  0  0  0
   -7.3056   -1.1514    0.4757 C   0  0  0  0  0  0  0  0  0  0  0  0
   -8.1043   -1.4357    1.1754 H   0  0  0  0  0  0  0  0  0  0  0  0
   -6.9110   -2.0912   -0.5065 C   0  0  0  0  0  0  0  0  0  0  0  0
   -5.8880   -1.7472   -1.4181 C   0  0  0  0  0  0  0  0  0  0  0  0
   -5.5800   -2.4414   -2.2105 H   0  0  0  0  0  0  0  0  0  0  0  0
   -5.2683   -0.4948   -1.3268 C   0  0  0  0  0  0  0  0  0  0  0  0
   -4.5037   -0.2297   -2.0732 H   0  0  0  0  0  0  0  0  0  0  0  0
   -7.2122   -4.2625   -1.4503 C   0  0  0  0  0  0  0  0  0  0  0  0
   -7.3899   -3.9113   -2.4903 H   0  0  0  0  0  0  0  0  0  0  0  0
   -7.8617   -5.1330   -1.2476 H   0  0  0  0  0  0  0  0  0  0  0  0
   -6.1483   -4.5687   -1.3458 H   0  0  0  0  0  0  0  0  0  0  0  0
  1  9  1  0  0  0  0
  1  5  1  0  0  0  0
  3 38  1  0  0  0  0
  4 30  1  0  0  0  0
  5  6  1  0  0  0  0
  7  5  1  0  0  0  0
  8  5  1  0  0  0  0
  9 17  1  0  0  0  0
 10  9  2  0  0  0  0
 11 10  1  0  0  0  0
 12 10  1  0  0  0  0
 12 14  2  0  0  0  0
 13 12  1  0  0  0  0
 14 15  1  0  0  0  0
 15 17  2  0  0  0  0
 15 16  1  0  0  0  0
 17 18  1  0  0  0  0
 19 27  1  0  0  0  0
 19 14  1  6  0  0  0
 20 19  1  0  0  0  0
 21 20  1  0  0  0  0
 22 20  2  0  0  0  0
 22 24  1  0  0  0  0
 23 22  1  0  0  0  0
 24 26  2  0  0  0  0
 25 24  1  0  0  0  0
 26 27  1  0  0  0  0
 26 31  1  0  0  0  0
 27 28  2  0  0  0  0
 28  4  1  0  0  0  0
 29 28  1  0  0  0  0
 31 30  2  0  0  0  0
 32 31  1  0  0  0  0
 33 30  1  6  0  0  0
 33 34  1  0  0  0  0
 33  3  1  0  0  0  0
 34 36  2  0  0  0  0
 35 34  1  0  0  0  0
 36 40  1  0  0  0  0
 37 46  1  0  0  0  0
 37 36  1  0  0  0  0
 37 38  2  0  0  0  0
 38 39  1  0  0  0  0
 40 41  1  0  0  0  0
 40 42  2  0  0  0  0
 42 43  1  0  0  0  0
 44 45  1  0  0  0  0
 44 42  1  0  0  0  0
 46 44  2  0  0  0  0
 47 46  1  0  0  0  0
 47 48  1  0  0  0  0
 48 49  1  0  0  0  0
 50 48  2  0  0  0  0
 50 51  1  0  0  0  0
 52  2  1  0  0  0  0
 52 50  1  0  0  0  0
 53 55  1  0  0  0  0
 53 52  2  0  0  0  0
 54 53  1  0  0  0  0
 55 47  2  0  0  0  0
 56 55  1  0  0  0  0
 57 60  1  0  0  0  0
 57 59  1  0  0  0  0
 57  2  1  0  0  0  0
 58 57  1  0  0  0  0
M  END
