1,2
 OpenBabel05122313053D

 26 28  0  0  0  0  0  0  0  0999 V2000
   -0.6902    1.6445   -0.4900 N   0  0  0  0  0  2  0  0  0  0  0  0
    0.6451   -0.3847    0.6830 N   0  0  0  0  0  2  0  0  0  0  0  0
    0.5235    1.9213    0.0562 C   0  0  0  0  0  0  0  0  0  0  0  0
    0.5990   -2.5829    1.0707 O   0  0  0  0  0  0  0  0  0  0  0  0
    1.0909    3.2311    0.0482 C   0  0  0  0  0  0  0  0  0  0  0  0
    1.2599    0.8216    0.6353 C   0  0  0  0  0  0  0  0  0  0  0  0
    2.4138    3.4222    0.5764 C   0  0  0  0  0  0  0  0  0  0  0  0
    2.8450    4.4342    0.5656 H   0  0  0  0  0  0  0  0  0  0  0  0
    1.3224   -1.4636    1.0865 C   0  0  0  0  0  0  0  0  0  0  0  0
    2.5893    1.0307    1.0955 C   0  0  0  0  0  0  0  0  0  0  0  0
    3.1398    2.3569    1.0629 C   0  0  0  0  0  0  0  0  0  0  0  0
    4.1638    2.5083    1.4368 H   0  0  0  0  0  0  0  0  0  0  0  0
    2.6815   -1.3696    1.5146 C   0  0  0  0  0  0  0  0  0  0  0  0
    3.2275   -2.2669    1.8300 H   0  0  0  0  0  0  0  0  0  0  0  0
    0.2948    4.2665   -0.5104 C   0  0  0  0  0  0  0  0  0  0  0  0
    0.6843    5.2960   -0.5331 H   0  0  0  0  0  0  0  0  0  0  0  0
    3.2897   -0.1251    1.5429 C   0  0  0  0  0  0  0  0  0  0  0  0
    4.3288   -0.0277    1.8921 H   0  0  0  0  0  0  0  0  0  0  0  0
   -0.9634    3.9705   -1.0258 C   0  0  0  0  0  0  0  0  0  0  0  0
   -1.6003    4.7550   -1.4581 H   0  0  0  0  0  0  0  0  0  0  0  0
   -1.4200    2.6322   -1.0073 C   0  0  0  0  0  0  0  0  0  0  0  0
   -2.4015    2.3511   -1.4223 H   0  0  0  0  0  0  0  0  0  0  0  0
    1.2467   -3.8475    1.2270 C   0  0  0  0  0  0  0  0  0  0  0  0
    2.0049   -3.9804    0.4263 H   0  0  0  0  0  0  0  0  0  0  0  0
    0.4516   -4.6045    1.1116 H   0  0  0  0  0  0  0  0  0  0  0  0
    1.7027   -3.9466    2.2347 H   0  0  0  0  0  0  0  0  0  0  0  0
  1  3  1  0  0  0  0
  2  9  1  0  0  0  0
  3  6  2  0  0  0  0
  4  9  1  0  0  0  0
  4 23  1  0  0  0  0
  5  3  1  0  0  0  0
  5  7  1  0  0  0  0
  6  2  1  0  0  0  0
  6 10  1  0  0  0  0
  7 11  2  0  0  0  0
  8  7  1  0  0  0  0
  9 13  2  0  0  0  0
 10 17  2  0  0  0  0
 11 10  1  0  0  0  0
 11 12  1  0  0  0  0
 13 17  1  0  0  0  0
 13 14  1  0  0  0  0
 15  5  2  0  0  0  0
 16 15  1  0  0  0  0
 17 18  1  0  0  0  0
 19 21  2  0  0  0  0
 19 15  1  0  0  0  0
 20 19  1  0  0  0  0
 21  1  1  0  0  0  0
 22 21  1  0  0  0  0
 23 26  1  0  0  0  0
 24 23  1  0  0  0  0
 25 23  1  0  0  0  0
M  END
