1,2
 OpenBabel05122313053D

 36 37  0  0  0  0  0  0  0  0999 V2000
    0.4606    1.6913    0.3397 N   0  0  0  0  0  2  0  0  0  0  0  0
   -0.4901   -0.5903   -0.4780 N   0  0  0  0  0  2  0  0  0  0  0  0
   -1.1947    0.5469   -0.9565 O   0  0  0  0  0  0  0  0  0  0  0  0
    0.8125    2.7084    0.8981 O   0  0  0  0  0  1  0  0  0  0  0  0
   -1.0342    1.6463   -0.0740 C   0  0  0  0  0  0  0  0  0  0  0  0
   -1.3927    2.9037   -0.8604 C   0  0  0  0  0  0  0  0  0  0  0  0
   -2.9030    3.0059   -1.1081 C   0  0  0  0  0  0  0  0  0  0  0  0
   -3.6949    2.9002    0.2009 C   0  0  0  0  0  0  0  0  0  0  0  0
   -3.3535    1.6078    0.9532 C   0  0  0  0  0  0  0  0  0  0  0  0
   -1.8478    1.4911    1.2203 C   0  0  0  0  0  0  0  0  0  0  0  0
   -1.1702   -1.7008   -0.5187 C   0  0  0  0  0  3  0  0  0  0  0  0
   -2.5953   -1.7811   -0.9964 C   0  0  0  0  0  0  0  0  0  0  0  0
   -3.4959   -2.4341    0.0736 C   0  0  0  0  0  0  0  0  0  0  0  0
   -2.9267   -3.7728    0.5533 C   0  0  0  0  0  0  0  0  0  0  0  0
   -1.4874   -3.6098    1.0500 C   0  0  0  0  0  0  0  0  0  0  0  0
   -0.5701   -2.9807   -0.0200 C   0  0  0  0  0  0  0  0  0  0  0  0
   -0.8184    2.8991   -1.8084 H   0  0  0  0  0  0  0  0  0  0  0  0
   -1.0356    3.7607   -0.2533 H   0  0  0  0  0  0  0  0  0  0  0  0
   -3.2164    2.1960   -1.8018 H   0  0  0  0  0  0  0  0  0  0  0  0
   -3.1237    3.9627   -1.6238 H   0  0  0  0  0  0  0  0  0  0  0  0
   -4.7843    2.9493   -0.0025 H   0  0  0  0  0  0  0  0  0  0  0  0
   -3.4560    3.7741    0.8471 H   0  0  0  0  0  0  0  0  0  0  0  0
   -3.6918    0.7335    0.3562 H   0  0  0  0  0  0  0  0  0  0  0  0
   -3.8993    1.5564    1.9176 H   0  0  0  0  0  0  0  0  0  0  0  0
   -1.5116    2.2943    1.9087 H   0  0  0  0  0  0  0  0  0  0  0  0
   -1.5857    0.5246    1.6988 H   0  0  0  0  0  0  0  0  0  0  0  0
   -2.5893   -2.4262   -1.9038 H   0  0  0  0  0  0  0  0  0  0  0  0
   -2.9696   -0.7889   -1.3002 H   0  0  0  0  0  0  0  0  0  0  0  0
   -4.5174   -2.5581   -0.3405 H   0  0  0  0  0  0  0  0  0  0  0  0
   -3.5880   -1.7382    0.9367 H   0  0  0  0  0  0  0  0  0  0  0  0
   -2.9478   -4.5037   -0.2859 H   0  0  0  0  0  0  0  0  0  0  0  0
   -3.5678   -4.1965    1.3536 H   0  0  0  0  0  0  0  0  0  0  0  0
   -1.0586   -4.5851    1.3566 H   0  0  0  0  0  0  0  0  0  0  0  0
   -1.4751   -2.9641    1.9556 H   0  0  0  0  0  0  0  0  0  0  0  0
    0.4605   -2.8204    0.3444 H   0  0  0  0  0  0  0  0  0  0  0  0
   -0.4876   -3.6717   -0.8888 H   0  0  0  0  0  0  0  0  0  0  0  0
  1  4  1  0  0  0  0
  3  2  1  0  0  0  0
  3  5  1  0  0  0  0
  5  1  1  0  0  0  0
  5 10  1  0  0  0  0
  6 18  1  0  0  0  0
  6  5  1  0  0  0  0
  7  6  1  0  0  0  0
  7  8  1  0  0  0  0
  8 22  1  0  0  0  0
  8  9  1  0  0  0  0
  9 10  1  0  0  0  0
  9 24  1  0  0  0  0
 10 26  1  0  0  0  0
 10 25  1  0  0  0  0
 11  2  1  0  0  0  0
 11 16  1  0  0  0  0
 12 11  1  0  0  0  0
 12 13  1  0  0  0  0
 13 14  1  0  0  0  0
 13 30  1  0  0  0  0
 14 15  1  0  0  0  0
 14 32  1  0  0  0  0
 15 33  1  0  0  0  0
 15 34  1  0  0  0  0
 16 35  1  0  0  0  0
 16 15  1  0  0  0  0
 17  6  1  0  0  0  0
 19  7  1  0  0  0  0
 20  7  1  0  0  0  0
 21  8  1  0  0  0  0
 23  9  1  0  0  0  0
 27 12  1  0  0  0  0
 28 12  1  0  0  0  0
 29 13  1  0  0  0  0
 31 14  1  0  0  0  0
 36 16  1  0  0  0  0
M  END
