4,6
 OpenBabel05122313053D

 26 28  0  0  1  0  0  0  0  0999 V2000
   -1.5757    3.6054   -0.9941 C   0  0  0  0  0  0  0  0  0  0  0  0
    0.5044    1.9893   -0.0948 C   0  0  0  0  0  0  0  0  0  0  0  0
    0.7487    3.3376   -0.4408 C   0  0  0  0  0  0  0  0  0  0  0  0
   -0.7519    1.4719   -0.2160 N   0  0  0  0  0  2  0  0  0  0  0  0
    2.5910    1.7671    1.2207 C   0  0  0  0  0  0  0  0  0  0  0  0
    0.9830   -0.8405   -0.8397 N   0  0  0  0  0  2  0  0  0  0  0  0
    3.2033   -0.7644    0.1772 C   0  0  0  0  0  0  0  0  0  0  0  0
    2.5614   -2.6249   -1.2447 C   0  0  0  0  0  0  0  0  0  0  0  0
    3.4987   -2.0201   -0.4264 C   0  0  0  0  0  0  0  0  0  0  0  0
    1.2948   -2.0097   -1.3980 C   0  0  0  0  0  3  0  0  0  0  0  0
    4.1241   -0.1015    1.0353 C   0  0  0  0  0  0  0  0  0  0  0  0
   -1.7603    2.2640   -0.6506 C   0  0  0  0  0  0  0  0  0  0  0  0
    1.6504    1.1657    0.3764 C   0  0  0  0  0  0  0  0  0  0  0  0
   -0.2916    4.1554   -0.8913 C   0  0  0  0  0  0  0  0  0  0  0  0
    3.8063    1.1347    1.5737 C   0  0  0  0  0  0  0  0  0  0  0  0
    1.9232   -0.1640   -0.1090 C   0  0  1  0  0  3  0  0  0  0  0  0
    2.7600   -3.5874   -1.7369 H   0  0  0  0  0  0  0  0  0  0  0  0
    0.4776   -2.5190   -1.9324 H   0  0  0  0  0  0  0  0  0  0  0  0
   -2.7498    1.7763   -0.6869 H   0  0  0  0  0  0  0  0  0  0  0  0
    1.7743    3.7251   -0.3786 H   0  0  0  0  0  0  0  0  0  0  0  0
   -0.0967    5.2022   -1.1680 H   0  0  0  0  0  0  0  0  0  0  0  0
   -2.4336    4.1967   -1.3441 H   0  0  0  0  0  0  0  0  0  0  0  0
    2.3745    2.7666    1.6258 H   0  0  0  0  0  0  0  0  0  0  0  0
    4.5023    1.6418    2.2579 H   0  0  0  0  0  0  0  0  0  0  0  0
    4.4749   -2.4905   -0.2303 H   0  0  0  0  0  0  0  0  0  0  0  0
    5.0842   -0.5898    1.2629 H   0  0  0  0  0  0  0  0  0  0  0  0
  1 14  1  0  0  0  0
  1 12  2  0  0  0  0
  2 13  2  0  0  0  0
  3 20  1  0  0  0  0
  3  2  1  0  0  0  0
  4  2  1  0  0  0  0
  5 15  2  0  0  0  0
  5 23  1  0  0  0  0
  7 11  2  0  0  0  0
  8  9  2  0  0  0  0
  9 25  1  0  0  0  0
  9  7  1  0  0  0  0
 10  8  1  0  0  0  0
 10  6  1  0  0  0  0
 11 26  1  0  0  0  0
 11 15  1  0  0  0  0
 12  4  1  0  0  0  0
 13  5  1  0  0  0  0
 14  3  2  0  0  0  0
 15 24  1  0  0  0  0
 16  6  1  6  0  0  0
 16  7  1  0  0  0  0
 16 13  1  0  0  0  0
 17  8  1  0  0  0  0
 18 10  1  0  0  0  0
 19 12  1  0  0  0  0
 21 14  1  0  0  0  0
 22  1  1  0  0  0  0
M  END
