1,2
 OpenBabel05122313053D

 51 55  0  0  0  0  0  0  0  0999 V2000
   -1.8125    1.4325    0.7931 N   0  0  0  0  0  2  0  0  0  0  0  0
   -1.8128   -1.4319    0.7938 N   0  0  0  0  0  2  0  0  0  0  0  0
    1.9912   -1.2322   -0.4317 C   0  0  0  0  0  0  0  0  0  0  0  0
    1.2941   -2.3255   -0.9872 C   0  0  0  0  0  0  0  0  0  0  0  0
    1.9934   -3.4591   -1.4186 C   0  0  0  0  0  0  0  0  0  0  0  0
    3.3907   -3.4984   -1.3016 C   0  0  0  0  0  0  0  0  0  0  0  0
    4.0900   -2.3959   -0.7834 C   0  0  0  0  0  0  0  0  0  0  0  0
    3.4093   -1.2430   -0.3560 C   0  0  0  0  0  0  0  0  0  0  0  0
    4.1172   -0.0003    0.2134 C   0  0  0  0  0  0  0  0  0  0  0  0
    3.4096    1.2427   -0.3559 C   0  0  0  0  0  0  0  0  0  0  0  0
    4.0906    2.3955   -0.7832 C   0  0  0  0  0  0  0  0  0  0  0  0
    3.3915    3.4982   -1.3014 C   0  0  0  0  0  0  0  0  0  0  0  0
    1.9942    3.4593   -1.4184 C   0  0  0  0  0  0  0  0  0  0  0  0
    1.2947    2.3257   -0.9871 C   0  0  0  0  0  0  0  0  0  0  0  0
    1.9915    1.2323   -0.4316 C   0  0  0  0  0  0  0  0  0  0  0  0
    1.2994    0.0001    0.0067 C   0  0  0  0  0  3  0  0  0  0  0  0
    0.1402    0.0001    0.7373 C   0  0  0  0  0  0  0  0  0  0  0  0
   -0.5282    1.2519    1.1911 C   0  0  0  0  0  0  0  0  0  0  0  0
    0.1089    2.1951    2.0174 C   0  0  0  0  0  0  0  0  0  0  0  0
   -0.5922    3.3379    2.4170 C   0  0  0  0  0  0  0  0  0  0  0  0
   -1.9136    3.5154    1.9767 C   0  0  0  0  0  0  0  0  0  0  0  0
   -2.4934    2.5430    1.1574 C   0  0  0  0  0  3  0  0  0  0  0  0
   -0.5283   -1.2516    1.1912 C   0  0  0  0  0  0  0  0  0  0  0  0
    0.1091   -2.1952    2.0168 C   0  0  0  0  0  0  0  0  0  0  0  0
   -0.5921   -3.3379    2.4166 C   0  0  0  0  0  0  0  0  0  0  0  0
   -1.9138   -3.5150    1.9770 C   0  0  0  0  0  0  0  0  0  0  0  0
   -2.4937   -2.5423    1.1582 C   0  0  0  0  0  0  0  0  0  0  0  0
    3.9498   -0.0003    1.7602 C   0  0  0  0  0  0  0  0  0  0  0  0
    5.6194   -0.0005   -0.1021 C   0  0  0  0  0  0  0  0  0  0  0  0
    0.2030   -2.2652   -1.1190 H   0  0  0  0  0  0  0  0  0  0  0  0
    1.4461   -4.3042   -1.8618 H   0  0  0  0  0  0  0  0  0  0  0  0
    3.9487   -4.3849   -1.6395 H   0  0  0  0  0  0  0  0  0  0  0  0
    5.1861   -2.4415   -0.7275 H   0  0  0  0  0  0  0  0  0  0  0  0
    5.1867    2.4408   -0.7273 H   0  0  0  0  0  0  0  0  0  0  0  0
    3.9498    4.3845   -1.6392 H   0  0  0  0  0  0  0  0  0  0  0  0
    1.4472    4.3044   -1.8617 H   0  0  0  0  0  0  0  0  0  0  0  0
    0.2036    2.2657   -1.1191 H   0  0  0  0  0  0  0  0  0  0  0  0
    1.1515    2.0235    2.3181 H   0  0  0  0  0  0  0  0  0  0  0  0
   -0.1104    4.0874    3.0623 H   0  0  0  0  0  0  0  0  0  0  0  0
   -2.4979    4.4024    2.2588 H   0  0  0  0  0  0  0  0  0  0  0  0
   -3.5037    2.6355    0.7332 H   0  0  0  0  0  0  0  0  0  0  0  0
    1.1519   -2.0239    2.3170 H   0  0  0  0  0  0  0  0  0  0  0  0
   -0.1100   -4.0877    3.0614 H   0  0  0  0  0  0  0  0  0  0  0  0
   -2.4981   -4.4019    2.2592 H   0  0  0  0  0  0  0  0  0  0  0  0
   -3.5043   -2.6346    0.7346 H   0  0  0  0  0  0  0  0  0  0  0  0
    4.4258   -0.9006    2.1987 H   0  0  0  0  0  0  0  0  0  0  0  0
    2.8812   -0.0001    2.0528 H   0  0  0  0  0  0  0  0  0  0  0  0
    4.4261    0.8998    2.1987 H   0  0  0  0  0  0  0  0  0  0  0  0
    6.1129   -0.8874    0.3397 H   0  0  0  0  0  0  0  0  0  0  0  0
    6.1132    0.8862    0.3399 H   0  0  0  0  0  0  0  0  0  0  0  0
    5.8125   -0.0004   -1.1928 H   0  0  0  0  0  0  0  0  0  0  0  0
  1 22  1  0  0  0  0
  1 18  1  0  0  0  0
  2 27  1  0  0  0  0
  2 23  1  0  0  0  0
  3  8  1  0  0  0  0
  3 16  1  0  0  0  0
  4  3  2  0  0  0  0
  5  6  2  0  0  0  0
  5  4  1  0  0  0  0
  6  7  1  0  0  0  0
  7 33  1  0  0  0  0
  7  8  2  0  0  0  0
  8  9  1  0  0  0  0
  9 28  1  0  0  0  0
 10  9  1  0  0  0  0
 11 34  1  0  0  0  0
 11 10  2  0  0  0  0
 12 11  1  0  0  0  0
 13 12  2  0  0  0  0
 13 14  1  0  0  0  0
 14 15  2  0  0  0  0
 15 10  1  0  0  0  0
 15 16  1  0  0  0  0
 16 17  1  0  0  0  0
 17 18  1  0  0  0  0
 17 23  2  0  0  0  0
 18 19  2  0  0  0  0
 19 38  1  0  0  0  0
 19 20  1  0  0  0  0
 20 39  1  0  0  0  0
 21 40  1  0  0  0  0
 21 20  2  0  0  0  0
 22 21  1  0  0  0  0
 23 24  1  0  0  0  0
 24 42  1  0  0  0  0
 24 25  2  0  0  0  0
 25 43  1  0  0  0  0
 26 44  1  0  0  0  0
 26 25  1  0  0  0  0
 27 26  2  0  0  0  0
 28 47  1  0  0  0  0
 28 46  1  0  0  0  0
 28 48  1  0  0  0  0
 29  9  1  0  0  0  0
 29 49  1  0  0  0  0
 29 50  1  0  0  0  0
 30  4  1  0  0  0  0
 31  5  1  0  0  0  0
 32  6  1  0  0  0  0
 35 12  1  0  0  0  0
 36 13  1  0  0  0  0
 37 14  1  0  0  0  0
 41 22  1  0  0  0  0
 45 27  1  0  0  0  0
 51 29  1  0  0  0  0
M  END
