1,10
 OpenBabel05122313053D

 36 38  0  0  1  0  0  0  0  0999 V2000
   -0.7527    0.0717   -0.1401 N   0  0  0  0  0  0  0  0  0  0  0  0
   -1.5235   -0.0698    1.1467 C   0  0  0  0  0  0  0  0  0  0  0  0
   -2.9639    0.1101    0.7283 C   0  0  0  0  0  0  0  0  0  0  0  0
   -4.0975    0.4438    1.4756 C   0  0  0  0  0  0  0  0  0  0  0  0
   -5.3406    0.5106    0.8184 C   0  0  0  0  0  0  0  0  0  0  0  0
   -5.4364    0.2459   -0.5584 C   0  0  0  0  0  0  0  0  0  0  0  0
   -4.2931   -0.0903   -1.3073 C   0  0  0  0  0  0  0  0  0  0  0  0
   -3.0585   -0.1544   -0.6528 C   0  0  0  0  0  0  0  0  0  0  0  0
   -1.6878   -0.5149   -1.1670 C   0  0  0  0  0  0  0  0  0  0  0  0
    1.8568    1.1413    0.2737 N   0  0  0  0  0  0  0  0  0  0  0  0
   -0.4737    1.4987   -0.4676 C   0  0  0  0  0  0  0  0  0  0  0  0
    0.6719    2.0660    0.3622 C   0  0  2  0  0  0  0  0  0  0  0  0
    1.1610    3.4420   -0.1699 C   0  0  0  0  0  0  0  0  0  0  0  0
    2.5178    3.1563   -0.8687 C   0  0  0  0  0  0  0  0  0  0  0  0
    2.6030    1.6230   -0.9291 C   0  0  0  0  0  0  0  0  0  0  0  0
    2.6942    1.2391    1.4949 C   0  0  0  0  0  0  0  0  0  0  0  0
   -1.3369   -1.1013    1.5142 H   0  0  0  0  0  0  0  0  0  0  0  0
   -1.1544    0.6422    1.9092 H   0  0  0  0  0  0  0  0  0  0  0  0
   -4.0246    0.6506    2.5546 H   0  0  0  0  0  0  0  0  0  0  0  0
   -6.2443    0.7765    1.3871 H   0  0  0  0  0  0  0  0  0  0  0  0
   -6.4154    0.3061   -1.0574 H   0  0  0  0  0  0  0  0  0  0  0  0
   -4.3731   -0.2972   -2.3855 H   0  0  0  0  0  0  0  0  0  0  0  0
   -1.5144   -1.6155   -1.1537 H   0  0  0  0  0  0  0  0  0  0  0  0
   -1.4351   -0.1337   -2.1745 H   0  0  0  0  0  0  0  0  0  0  0  0
   -0.2021    1.5330   -1.5413 H   0  0  0  0  0  0  0  0  0  0  0  0
   -1.3881    2.1209   -0.3388 H   0  0  0  0  0  0  0  0  0  0  0  0
    0.3715    2.1172    1.4267 H   0  0  0  0  0  0  0  0  0  0  0  0
    1.2735    4.1725    0.6533 H   0  0  0  0  0  0  0  0  0  0  0  0
    0.4163    3.8687   -0.8712 H   0  0  0  0  0  0  0  0  0  0  0  0
    2.5792    3.6035   -1.8791 H   0  0  0  0  0  0  0  0  0  0  0  0
    3.3584    3.5774   -0.2827 H   0  0  0  0  0  0  0  0  0  0  0  0
    3.6173    1.1848   -0.9196 H   0  0  0  0  0  0  0  0  0  0  0  0
    2.0894    1.2246   -1.8260 H   0  0  0  0  0  0  0  0  0  0  0  0
    2.0862    0.9388    2.3683 H   0  0  0  0  0  0  0  0  0  0  0  0
    3.5284    0.5204    1.3896 H   0  0  0  0  0  0  0  0  0  0  0  0
    3.0738    2.2727    1.6476 H   0  0  0  0  0  0  0  0  0  0  0  0
  1  2  1  0  0  0  0
  2 17  1  0  0  0  0
  2 18  1  0  0  0  0
  3  2  1  0  0  0  0
  3  4  1  0  0  0  0
  4 19  1  0  0  0  0
  5 20  1  0  0  0  0
  5  4  2  0  0  0  0
  6  5  1  0  0  0  0
  7  8  1  0  0  0  0
  7  6  2  0  0  0  0
  8  3  2  0  0  0  0
  9 23  1  0  0  0  0
  9  8  1  0  0  0  0
  9  1  1  0  0  0  0
 10 12  1  0  0  0  0
 10 16  1  0  0  0  0
 11 26  1  0  0  0  0
 11  1  1  0  0  0  0
 11 12  1  0  0  0  0
 12 27  1  1  0  0  0
 13 12  1  0  0  0  0
 13 28  1  0  0  0  0
 14 31  1  0  0  0  0
 14 13  1  0  0  0  0
 15 32  1  0  0  0  0
 15 14  1  0  0  0  0
 15 10  1  0  0  0  0
 16 36  1  0  0  0  0
 16 34  1  0  0  0  0
 21  6  1  0  0  0  0
 22  7  1  0  0  0  0
 24  9  1  0  0  0  0
 25 11  1  0  0  0  0
 29 13  1  0  0  0  0
 30 14  1  0  0  0  0
 33 15  1  0  0  0  0
 35 16  1  0  0  0  0
M  END
