56,57
 OpenBabel05122313053D

 61 64  0  0  1  0  0  0  0  0999 V2000
   -1.5117    0.4339   -0.0074 B   0  0  1  0  0  0  0  0  0  0  0  0
    0.3837   -1.0619    3.0139 C   0  0  0  0  0  0  0  0  0  0  0  0
    1.1448   -2.3870    3.0402 C   0  0  0  0  0  0  0  0  0  0  0  0
    0.6663   -3.1287    2.3707 H   0  0  0  0  0  0  0  0  0  0  0  0
    1.1701   -2.8022    4.0675 H   0  0  0  0  0  0  0  0  0  0  0  0
    2.1873   -2.2464    2.6963 H   0  0  0  0  0  0  0  0  0  0  0  0
    1.0195   -0.0033    3.9294 C   0  0  0  0  0  0  0  0  0  0  0  0
    2.0674    0.2108    3.6549 H   0  0  0  0  0  0  0  0  0  0  0  0
    1.0135   -0.3672    4.9764 H   0  0  0  0  0  0  0  0  0  0  0  0
    0.4488    0.9457    3.8893 H   0  0  0  0  0  0  0  0  0  0  0  0
   -1.1123   -1.2339    3.3791 C   0  0  0  0  0  0  0  0  0  0  0  0
   -1.4654   -2.2792    3.2429 H   0  0  0  0  0  0  0  0  0  0  0  0
   -1.3665   -0.8902    4.3987 H   0  0  0  0  0  0  0  0  0  0  0  0
   -0.9697   -0.1773    1.3935 C   0  0  2  0  0  3  0  0  0  0  0  0
    0.9012   -3.4616   -1.8408 C   0  0  0  0  0  0  0  0  0  0  0  0
    1.9768   -3.2711   -1.6673 H   0  0  0  0  0  0  0  0  0  0  0  0
    0.8127   -4.2547   -2.6101 H   0  0  0  0  0  0  0  0  0  0  0  0
    0.4679   -3.8395   -0.8939 H   0  0  0  0  0  0  0  0  0  0  0  0
    0.1790   -2.1934   -2.2976 C   0  0  0  0  0  0  0  0  0  0  0  0
    0.7672   -1.6112   -3.5930 C   0  0  0  0  0  0  0  0  0  0  0  0
    0.2114   -0.7038   -3.9024 H   0  0  0  0  0  0  0  0  0  0  0  0
    0.6869   -2.3600   -4.4065 H   0  0  0  0  0  0  0  0  0  0  0  0
    1.8330   -1.3433   -3.4875 H   0  0  0  0  0  0  0  0  0  0  0  0
   -1.3409   -2.4352   -2.4819 C   0  0  0  0  0  0  0  0  0  0  0  0
   -1.6568   -2.5013   -3.5395 H   0  0  0  0  0  0  0  0  0  0  0  0
   -1.6975   -3.3346   -1.9343 H   0  0  0  0  0  0  0  0  0  0  0  0
   -1.0479   -0.6931   -1.0803 C   0  0  1  0  0  3  0  0  0  0  0  0
   -5.1521    1.5622   -0.1321 C   0  0  0  0  0  0  0  0  0  0  0  0
   -5.6254    2.0794   -0.9864 H   0  0  0  0  0  0  0  0  0  0  0  0
   -5.4218    2.0798    0.8111 H   0  0  0  0  0  0  0  0  0  0  0  0
   -5.4345    0.0445   -0.0863 C   0  0  0  0  0  0  0  0  0  0  0  0
   -6.4163   -0.3333    1.0228 C   0  0  0  0  0  0  0  0  0  0  0  0
   -6.5991   -1.4253    1.0501 H   0  0  0  0  0  0  0  0  0  0  0  0
   -7.3925    0.1562    0.8370 H   0  0  0  0  0  0  0  0  0  0  0  0
   -6.0483   -0.0061    2.0151 H   0  0  0  0  0  0  0  0  0  0  0  0
   -5.8657   -0.5010   -1.4558 C   0  0  0  0  0  0  0  0  0  0  0  0
   -5.1287   -0.2339   -2.2386 H   0  0  0  0  0  0  0  0  0  0  0  0
   -6.8491   -0.0738   -1.7344 H   0  0  0  0  0  0  0  0  0  0  0  0
   -5.9768   -1.6027   -1.4394 H   0  0  0  0  0  0  0  0  0  0  0  0
   -3.7781   -1.8208    0.5485 C   0  0  0  0  0  0  0  0  0  0  0  0
   -2.6929   -2.0071    0.5508 H   0  0  0  0  0  0  0  0  0  0  0  0
   -4.2504   -2.4864   -0.2001 H   0  0  0  0  0  0  0  0  0  0  0  0
   -4.1822   -2.0557    1.5527 H   0  0  0  0  0  0  0  0  0  0  0  0
   -3.1411    0.5141    0.0009 C   0  0  2  0  0  3  0  0  0  0  0  0
   -0.8870    1.8980   -0.3125 C   0  0  0  0  0  0  0  0  0  0  0  0
   -0.7832    2.8592    0.7172 C   0  0  0  0  0  0  0  0  0  0  0  0
   -1.0737    2.5887    1.7465 H   0  0  0  0  0  0  0  0  0  0  0  0
   -0.3197    4.1588    0.4615 C   0  0  0  0  0  0  0  0  0  0  0  0
   -0.2466    4.8891    1.2820 H   0  0  0  0  0  0  0  0  0  0  0  0
    0.0520    4.5280   -0.8423 C   0  0  0  0  0  0  0  0  0  0  0  0
    0.4169    5.5458   -1.0468 H   0  0  0  0  0  0  0  0  0  0  0  0
   -0.0431    3.5883   -1.8814 C   0  0  0  0  0  0  0  0  0  0  0  0
    0.2444    3.8694   -2.9062 H   0  0  0  0  0  0  0  0  0  0  0  0
   -0.5095    2.2916   -1.6139 C   0  0  0  0  0  0  0  0  0  0  0  0
   -0.5809    1.5695   -2.4438 H   0  0  0  0  0  0  0  0  0  0  0  0
    0.2632   -0.5485    1.6059 N   0  0  0  0  0  2  0  0  0  0  0  0
    0.1652   -1.1584   -1.2047 N   0  0  0  0  0  2  0  0  0  0  0  0
   -4.0416   -0.4347    0.2149 N   0  0  0  0  0  0  0  0  0  0  0  0
   -1.8212   -0.4017    2.4223 O   0  0  0  0  0  0  0  0  0  0  0  0
   -1.9724   -1.2749   -1.8834 O   0  0  0  0  0  0  0  0  0  0  0  0
   -3.7097    1.6726   -0.2841 O   0  0  0  0  0  0  0  0  0  0  0  0
  1 45  1  6  0  0  0
  2  3  1  0  0  0  0
  2 11  1  0  0  0  0
  2  7  1  0  0  0  0
  3  5  1  0  0  0  0
  4  3  1  0  0  0  0
  6  3  1  0  0  0  0
  7  9  1  0  0  0  0
  8  7  1  0  0  0  0
 10  7  1  0  0  0  0
 11 13  1  0  0  0  0
 12 11  1  0  0  0  0
 14  1  1  6  0  0  0
 14 56  1  0  0  0  0
 14 59  1  0  0  0  0
 15 16  1  0  0  0  0
 15 18  1  0  0  0  0
 17 15  1  0  0  0  0
 19 15  1  0  0  0  0
 19 57  1  0  0  0  0
 20 23  1  0  0  0  0
 20 19  1  0  0  0  0
 21 20  1  0  0  0  0
 22 20  1  0  0  0  0
 24 19  1  0  0  0  0
 24 26  1  0  0  0  0
 24 60  1  0  0  0  0
 25 24  1  0  0  0  0
 27  1  1  1  0  0  0
 28 31  1  0  0  0  0
 28 30  1  0  0  0  0
 29 28  1  0  0  0  0
 31 58  1  0  0  0  0
 31 32  1  0  0  0  0
 32 33  1  0  0  0  0
 32 35  1  0  0  0  0
 34 32  1  0  0  0  0
 36 39  1  0  0  0  0
 36 31  1  0  0  0  0
 37 36  1  0  0  0  0
 38 36  1  0  0  0  0
 40 41  1  0  0  0  0
 40 43  1  0  0  0  0
 42 40  1  0  0  0  0
 44  1  1  6  0  0  0
 44 58  1  0  0  0  0
 45 46  1  0  0  0  0
 46 47  1  0  0  0  0
 48 46  2  0  0  0  0
 48 49  1  0  0  0  0
 50 48  1  0  0  0  0
 51 50  1  0  0  0  0
 52 54  1  0  0  0  0
 52 50  2  0  0  0  0
 53 52  1  0  0  0  0
 54 45  2  0  0  0  0
 55 54  1  0  0  0  0
 56  2  1  0  0  0  0
 57 27  1  0  0  0  0
 58 40  1  0  0  0  0
 59 11  1  0  0  0  0
 60 27  1  0  0  0  0
 61 28  1  0  0  0  0
 61 44  1  0  0  0  0
M  END
