1,3
 OpenBabel05122313053D

 62 64  0  0  1  0  0  0  0  0999 V2000
    0.3052    0.1511    1.6273 N   0  0  0  0  0  2  0  0  0  0  0  0
    0.1742    1.2588    2.3986 N   0  0  0  0  0  0  0  0  0  0  0  0
    1.7526    1.6924   -0.0057 N   0  0  0  0  0  2  0  0  0  0  0  0
    1.4924    2.7076    0.8561 N   0  0  0  0  0  0  0  0  0  0  0  0
   -1.3556    2.0200   -0.0615 N   0  0  0  0  0  0  0  0  0  0  0  0
   -1.0546    2.9015    0.9165 N   0  0  0  0  0  0  0  0  0  0  0  0
    0.2191    2.6719    1.7478 B   0  0  1  0  0  0  0  0  0  0  0  0
    0.3154    3.5139    2.6157 H   0  0  0  0  0  0  0  0  0  0  0  0
    0.0365    0.9085    3.7128 C   0  0  2  0  0  3  0  0  0  0  0  0
    0.0947   -0.4876    3.7795 C   0  0  0  0  0  0  0  0  0  0  0  0
    0.0272   -1.1177    4.6708 H   0  0  0  0  0  0  0  0  0  0  0  0
    0.2760   -0.9167    2.4510 C   0  0  0  0  0  0  0  0  0  0  0  0
   -0.1417    1.9057    4.8093 C   0  0  0  0  0  0  0  0  0  0  0  0
   -1.0479    2.5257    4.6547 H   0  0  0  0  0  0  0  0  0  0  0  0
    0.7220    2.5972    4.8810 H   0  0  0  0  0  0  0  0  0  0  0  0
   -0.2458    1.3818    5.7769 H   0  0  0  0  0  0  0  0  0  0  0  0
    0.4088   -2.3389    1.9888 C   0  0  0  0  0  0  0  0  0  0  0  0
   -0.9848   -3.0499    1.8713 C   0  0  0  0  0  0  0  0  0  0  0  0
   -0.9824   -4.3738    1.0487 C   0  0  0  0  0  0  0  0  0  0  0  0
    2.5253    3.6018    0.8621 C   0  0  2  0  0  3  0  0  0  0  0  0
    3.4935    3.1244   -0.0269 C   0  0  0  0  0  0  0  0  0  0  0  0
    4.4593    3.5761   -0.2675 H   0  0  0  0  0  0  0  0  0  0  0  0
    2.9705    1.9232   -0.5436 C   0  0  0  0  0  0  0  0  0  0  0  0
    2.5330    4.8374    1.6998 C   0  0  0  0  0  0  0  0  0  0  0  0
    1.6617    5.4868    1.4796 H   0  0  0  0  0  0  0  0  0  0  0  0
    3.4528    5.4172    1.5010 H   0  0  0  0  0  0  0  0  0  0  0  0
    2.5008    4.6002    2.7824 H   0  0  0  0  0  0  0  0  0  0  0  0
    3.6848    0.9987   -1.4941 C   0  0  0  0  0  0  0  0  0  0  0  0
    3.9017   -0.4469   -0.9276 C   0  0  0  0  0  0  0  0  0  0  0  0
    5.0357   -1.2607   -1.6289 C   0  0  0  0  0  0  0  0  0  0  0  0
   -2.0392    3.8493    1.0657 C   0  0  0  0  0  0  0  0  0  0  0  0
   -3.0274    3.5516    0.1244 C   0  0  0  0  0  0  0  0  0  0  0  0
   -3.9638    4.0883   -0.0540 H   0  0  0  0  0  0  0  0  0  0  0  0
   -2.5426    2.4059   -0.5497 C   0  0  0  0  0  0  0  0  0  0  0  0
   -1.9779    4.9546    2.0699 C   0  0  0  0  0  0  0  0  0  0  0  0
   -1.9442    4.5703    3.1101 H   0  0  0  0  0  0  0  0  0  0  0  0
   -2.8728    5.5966    1.9750 H   0  0  0  0  0  0  0  0  0  0  0  0
   -1.0828    5.5946    1.9296 H   0  0  0  0  0  0  0  0  0  0  0  0
   -3.2543    1.6059   -1.5964 C   0  0  0  0  0  0  0  0  0  0  0  0
   -4.1095    0.4526   -0.9715 C   0  0  0  0  0  0  0  0  0  0  0  0
   -4.6473   -0.6051   -1.9823 C   0  0  0  0  0  0  0  0  0  0  0  0
    1.1396   -3.0396    2.9050 F   0  0  0  0  0  0  0  0  0  0  0  0
    1.0529   -2.4138    0.7916 F   0  0  0  0  0  0  0  0  0  0  0  0
   -1.4033   -3.3356    3.1340 F   0  0  0  0  0  0  0  0  0  0  0  0
   -1.8782   -2.2067    1.3059 F   0  0  0  0  0  0  0  0  0  0  0  0
   -0.8226   -4.1219   -0.2556 F   0  0  0  0  0  0  0  0  0  0  0  0
   -2.1550   -5.0058    1.2279 F   0  0  0  0  0  0  0  0  0  0  0  0
    0.0091   -5.1805    1.4688 F   0  0  0  0  0  0  0  0  0  0  0  0
    3.0546    0.8958   -2.6917 F   0  0  0  0  0  0  0  0  0  0  0  0
    4.9294    1.5284   -1.7244 F   0  0  0  0  0  0  0  0  0  0  0  0
    2.7524   -1.1560   -1.0597 F   0  0  0  0  0  0  0  0  0  0  0  0
    4.2128   -0.3600    0.3909 F   0  0  0  0  0  0  0  0  0  0  0  0
    4.9065   -1.1943   -2.9633 F   0  0  0  0  0  0  0  0  0  0  0  0
    6.2423   -0.7923   -1.2776 F   0  0  0  0  0  0  0  0  0  0  0  0
    4.9482   -2.5461   -1.2493 F   0  0  0  0  0  0  0  0  0  0  0  0
   -2.3729    1.0454   -2.4801 F   0  0  0  0  0  0  0  0  0  0  0  0
   -4.1055    2.4089   -2.2985 F   0  0  0  0  0  0  0  0  0  0  0  0
   -5.1749    1.0218   -0.3471 F   0  0  0  0  0  0  0  0  0  0  0  0
   -3.3686   -0.2069   -0.0483 F   0  0  0  0  0  0  0  0  0  0  0  0
   -3.6495   -1.3752   -2.4355 F   0  0  0  0  0  0  0  0  0  0  0  0
   -5.5486   -1.3886   -1.3626 F   0  0  0  0  0  0  0  0  0  0  0  0
   -5.2483   -0.0032   -3.0233 F   0  0  0  0  0  0  0  0  0  0  0  0
  1  2  1  0  0  0  0
  1 12  1  0  0  0  0
  2  9  1  0  0  0  0
  3  4  1  0  0  0  0
  4 20  1  0  0  0  0
  4  7  1  0  0  0  0
  5  6  1  0  0  0  0
  6 31  1  0  0  0  0
  6  7  1  0  0  0  0
  7  2  1  0  0  0  0
  7  8  1  1  0  0  0
  9 10  1  0  0  0  0
  9 13  1  6  0  0  0
 10 11  1  0  0  0  0
 12 10  2  0  0  0  0
 13 15  1  0  0  0  0
 13 16  1  0  0  0  0
 14 13  1  0  0  0  0
 17 12  1  0  0  0  0
 17 42  1  0  0  0  0
 18 17  1  0  0  0  0
 18 44  1  0  0  0  0
 19 47  1  0  0  0  0
 19 48  1  0  0  0  0
 19 18  1  0  0  0  0
 20 24  1  1  0  0  0
 21 20  1  0  0  0  0
 22 21  1  0  0  0  0
 23 21  2  0  0  0  0
 23  3  1  0  0  0  0
 24 27  1  0  0  0  0
 25 24  1  0  0  0  0
 26 24  1  0  0  0  0
 28 29  1  0  0  0  0
 28 23  1  0  0  0  0
 29 52  1  0  0  0  0
 30 54  1  0  0  0  0
 30 55  1  0  0  0  0
 30 29  1  0  0  0  0
 31 35  1  0  0  0  0
 32 31  2  0  0  0  0
 33 32  1  0  0  0  0
 34  5  2  0  0  0  0
 34 32  1  0  0  0  0
 35 36  1  0  0  0  0
 37 35  1  0  0  0  0
 38 35  1  0  0  0  0
 39 40  1  0  0  0  0
 39 34  1  0  0  0  0
 40 58  1  0  0  0  0
 40 59  1  0  0  0  0
 41 61  1  0  0  0  0
 41 40  1  0  0  0  0
 43 17  1  0  0  0  0
 45 18  1  0  0  0  0
 46 19  1  0  0  0  0
 49 28  1  0  0  0  0
 50 28  1  0  0  0  0
 51 29  1  0  0  0  0
 53 30  1  0  0  0  0
 56 39  1  0  0  0  0
 57 39  1  0  0  0  0
 60 41  1  0  0  0  0
 62 41  1  0  0  0  0
M  END
