1,5
 OpenBabel05122313053D

 19 18  0  0  1  0  0  0  0  0999 V2000
    0.6747    0.1746    1.3246 N   0  0  0  0  0  2  0  0  0  0  0  0
    0.9165   -0.6384    1.9008 H   0  0  0  0  0  0  0  0  0  0  0  0
    1.6339    1.8639   -0.0135 N   0  0  0  0  0  0  0  0  0  0  0  0
    2.5190    2.1062   -0.4631 H   0  0  0  0  0  0  0  0  0  0  0  0
   -0.6560    1.8886   -0.5185 N   0  0  0  0  0  2  0  0  0  0  0  0
   -1.4516    2.4800   -0.7810 H   0  0  0  0  0  0  0  0  0  0  0  0
    0.7452    3.7549   -0.9843 N   0  0  0  0  0  0  0  0  0  0  0  0
   -0.0363    4.2805   -1.3746 H   0  0  0  0  0  0  0  0  0  0  0  0
    1.4706    4.3142   -0.5332 H   0  0  0  0  0  0  0  0  0  0  0  0
    1.7060    0.7245    0.7800 C   0  0  1  0  0  3  0  0  0  0  0  0
    0.4874    2.4952   -0.4987 C   0  0  2  0  0  3  0  0  0  0  0  0
    2.9915    0.3417    0.8622 O   0  0  0  0  0  0  0  0  0  0  0  0
    3.2476   -1.0221    1.2825 C   0  0  0  0  0  0  0  0  0  0  0  0
    2.5492   -1.6852    0.7256 H   0  0  0  0  0  0  0  0  0  0  0  0
    3.0433   -1.1074    2.3734 H   0  0  0  0  0  0  0  0  0  0  0  0
    4.6941   -1.3376    0.9697 C   0  0  0  0  0  0  0  0  0  0  0  0
    4.9242   -2.3729    1.2889 H   0  0  0  0  0  0  0  0  0  0  0  0
    5.3810   -0.6493    1.5004 H   0  0  0  0  0  0  0  0  0  0  0  0
    4.8829   -1.2617   -0.1188 H   0  0  0  0  0  0  0  0  0  0  0  0
  1  2  1  0  0  0  0
  3 10  1  0  0  0  0
  4  3  1  0  0  0  0
  6  5  1  0  0  0  0
  7  9  1  0  0  0  0
  7 11  1  0  0  0  0
  8  7  1  0  0  0  0
 10 12  1  1  0  0  0
 10  1  1  0  0  0  0
 11  5  1  6  0  0  0
 11  3  1  0  0  0  0
 12 13  1  0  0  0  0
 13 15  1  0  0  0  0
 14 13  1  0  0  0  0
 16 13  1  0  0  0  0
 16 17  1  0  0  0  0
 16 18  1  0  0  0  0
 19 16  1  0  0  0  0
M  END
