1,4
 OpenBabel05122313053D

 31 32  0  0  1  0  0  0  0  0999 V2000
   -0.0154    1.1977   -0.5063 N   0  0  0  0  0  2  0  0  0  0  0  0
   -1.3618    1.4675   -0.3461 N   0  0  0  0  0  0  0  0  0  0  0  0
   -1.6007    1.7288    0.6191 H   0  0  0  0  0  0  0  0  0  0  0  0
    2.4808    0.5156   -0.2125 N   0  0  0  0  0  2  0  0  0  0  0  0
    3.7651    0.1038   -0.1196 C   0  0  0  0  0  3  0  0  0  0  0  0
    3.9179   -0.9826   -0.0499 H   0  0  0  0  0  0  0  0  0  0  0  0
    4.8423    0.9922   -0.0992 C   0  0  0  0  0  0  0  0  0  0  0  0
    5.8652    0.5994   -0.0160 H   0  0  0  0  0  0  0  0  0  0  0  0
    4.5893    2.3717   -0.1775 C   0  0  0  0  0  0  0  0  0  0  0  0
    5.4144    3.0984   -0.1620 H   0  0  0  0  0  0  0  0  0  0  0  0
    3.2653    2.8059   -0.2720 C   0  0  0  0  0  0  0  0  0  0  0  0
    3.0328    3.8771   -0.3300 H   0  0  0  0  0  0  0  0  0  0  0  0
    2.2205    1.8602   -0.2908 C   0  0  0  0  0  0  0  0  0  0  0  0
    0.8058    2.2214   -0.3745 C   0  0  2  0  0  3  0  0  0  0  0  0
    0.3320    3.6334   -0.2521 C   0  0  0  0  0  0  0  0  0  0  0  0
   -0.6727    3.7352   -0.7029 H   0  0  0  0  0  0  0  0  0  0  0  0
    0.2572    3.9257    0.8178 H   0  0  0  0  0  0  0  0  0  0  0  0
    1.0249    4.3416   -0.7433 H   0  0  0  0  0  0  0  0  0  0  0  0
   -2.2989    0.7640   -1.1105 C   0  0  0  0  0  0  0  0  0  0  0  0
   -2.0201    0.3249   -2.2181 O   0  0  0  0  0  0  0  0  0  0  0  0
   -3.6454    0.6496   -0.4688 C   0  0  0  0  0  0  0  0  0  0  0  0
   -4.7739    0.5713   -1.3091 C   0  0  0  0  0  0  0  0  0  0  0  0
   -4.6207    0.6211   -2.3972 H   0  0  0  0  0  0  0  0  0  0  0  0
   -6.0514    0.4269   -0.7562 C   0  0  0  0  0  0  0  0  0  0  0  0
   -6.9321    0.3762   -1.4142 H   0  0  0  0  0  0  0  0  0  0  0  0
   -6.2085    0.3371    0.6380 C   0  0  0  0  0  0  0  0  0  0  0  0
   -7.2130    0.2162    1.0714 H   0  0  0  0  0  0  0  0  0  0  0  0
   -5.0843    0.3829    1.4777 C   0  0  0  0  0  0  0  0  0  0  0  0
   -5.2026    0.2794    2.5667 H   0  0  0  0  0  0  0  0  0  0  0  0
   -3.8033    0.5399    0.9295 C   0  0  0  0  0  0  0  0  0  0  0  0
   -2.9221    0.5132    1.5932 H   0  0  0  0  0  0  0  0  0  0  0  0
  1  2  1  0  0  0  0
  2  3  1  0  0  0  0
  4  5  1  0  0  0  0
  5  7  1  0  0  0  0
  5  6  1  0  0  0  0
  7  8  1  0  0  0  0
  9 10  1  0  0  0  0
  9  7  2  0  0  0  0
 11  9  1  0  0  0  0
 12 11  1  0  0  0  0
 13 11  2  0  0  0  0
 13  4  1  0  0  0  0
 14  1  1  1  0  0  0
 14 13  1  0  0  0  0
 14 15  1  0  0  0  0
 15 17  1  0  0  0  0
 16 15  1  0  0  0  0
 18 15  1  0  0  0  0
 19 21  1  0  0  0  0
 19  2  1  0  0  0  0
 20 19  2  0  0  0  0
 21 30  1  0  0  0  0
 22 24  1  0  0  0  0
 22 21  2  0  0  0  0
 23 22  1  0  0  0  0
 24 26  2  0  0  0  0
 25 24  1  0  0  0  0
 26 27  1  0  0  0  0
 26 28  1  0  0  0  0
 28 29  1  0  0  0  0
 30 28  2  0  0  0  0
 30 31  1  0  0  0  0
M  END
