1,8
 OpenBabel05122313053D

 29 30  0  0  0  0  0  0  0  0999 V2000
   -2.6115    1.0535    0.4293 N   0  0  0  0  0  2  0  0  0  0  0  0
   -3.9508    0.9930    0.5794 C   0  0  0  0  0  3  0  0  0  0  0  0
   -4.7652    2.1297    0.5351 C   0  0  0  0  0  0  0  0  0  0  0  0
   -4.1778    3.3895    0.3264 C   0  0  0  0  0  0  0  0  0  0  0  0
   -2.7922    3.4634    0.1732 C   0  0  0  0  0  0  0  0  0  0  0  0
   -2.0303    2.2780    0.2250 C   0  0  0  0  0  0  0  0  0  0  0  0
   -0.5954    2.2726    0.1059 C   0  0  0  0  0  3  0  0  0  0  0  0
    0.0493    1.1269    0.1831 N   0  0  0  0  0  2  0  0  0  0  0  0
    1.4110    1.2908    0.1275 N   0  0  0  0  0  0  0  0  0  0  0  0
    2.1197    0.2057    0.1930 C   0  0  0  0  0  0  0  0  0  0  0  0
    3.5743    0.2314    0.1386 C   0  0  0  0  0  0  0  0  0  0  0  0
    4.3006    1.4487    0.0567 C   0  0  0  0  0  0  0  0  0  0  0  0
    5.6904    1.4273    0.0025 C   0  0  0  0  0  0  0  0  0  0  0  0
    6.3839    0.1942    0.0266 C   0  0  0  0  0  0  0  0  0  0  0  0
    5.6672   -1.0163    0.1045 C   0  0  0  0  0  0  0  0  0  0  0  0
    4.2707   -1.0008    0.1611 C   0  0  0  0  0  0  0  0  0  0  0  0
    7.8700    0.1801   -0.0319 C   0  0  0  0  0  0  0  0  0  0  0  0
    8.5655    1.1789   -0.0977 O   0  0  0  0  0  0  0  0  0  0  0  0
   -4.3785   -0.0081    0.7309 H   0  0  0  0  0  0  0  0  0  0  0  0
   -5.8513    2.0186    0.6596 H   0  0  0  0  0  0  0  0  0  0  0  0
   -4.7956    4.2982    0.2840 H   0  0  0  0  0  0  0  0  0  0  0  0
   -2.2823    4.4232    0.0085 H   0  0  0  0  0  0  0  0  0  0  0  0
   -0.0204    3.2058   -0.0086 H   0  0  0  0  0  0  0  0  0  0  0  0
    1.6258   -0.7795    0.2893 H   0  0  0  0  0  0  0  0  0  0  0  0
    3.7385    2.3933    0.0373 H   0  0  0  0  0  0  0  0  0  0  0  0
    6.2841    2.3519   -0.0603 H   0  0  0  0  0  0  0  0  0  0  0  0
    6.2155   -1.9720    0.1187 H   0  0  0  0  0  0  0  0  0  0  0  0
    3.6995   -1.9408    0.2135 H   0  0  0  0  0  0  0  0  0  0  0  0
    8.3261   -0.8557   -0.0103 H   0  0  0  0  0  0  0  0  0  0  0  0
  1  2  1  0  0  0  0
  2 19  1  0  0  0  0
  3  2  1  0  0  0  0
  3 20  1  0  0  0  0
  4  3  2  0  0  0  0
  5  6  2  0  0  0  0
  5  4  1  0  0  0  0
  6  1  1  0  0  0  0
  7  8  1  0  0  0  0
  7  6  1  0  0  0  0
  9  8  1  0  0  0  0
  9 10  2  0  0  0  0
 10 24  1  0  0  0  0
 11 16  1  0  0  0  0
 11 10  1  0  0  0  0
 12 11  2  0  0  0  0
 13 14  2  0  0  0  0
 13 12  1  0  0  0  0
 14 15  1  0  0  0  0
 15 27  1  0  0  0  0
 15 16  2  0  0  0  0
 16 28  1  0  0  0  0
 17 29  1  0  0  0  0
 17 14  1  0  0  0  0
 18 17  2  0  0  0  0
 21  4  1  0  0  0  0
 22  5  1  0  0  0  0
 23  7  1  0  0  0  0
 25 12  1  0  0  0  0
 26 13  1  0  0  0  0
M  END
