3,4
 OpenBabel05122313053D

 34 35  0  0  0  0  0  0  0  0999 V2000
   -7.0389   -2.0151    0.2203 Cl  0  0  0  0  0  0  0  0  0  0  0  0
    7.0490   -2.0335   -0.4682 Cl  0  0  0  0  0  0  0  0  0  0  0  0
   -1.3384    1.8367   -0.2957 N   0  0  0  0  0  2  0  0  0  0  0  0
    1.3705    1.8004    0.4498 N   0  0  0  0  0  2  0  0  0  0  0  0
   -3.7067    0.1509    0.8191 C   0  0  0  0  0  0  0  0  0  0  0  0
   -2.9285    0.2369    1.5878 H   0  0  0  0  0  0  0  0  0  0  0  0
   -4.7474   -0.7643    0.9939 C   0  0  0  0  0  0  0  0  0  0  0  0
   -4.7862   -1.4059    1.8847 H   0  0  0  0  0  0  0  0  0  0  0  0
   -5.7524   -0.8637    0.0161 C   0  0  0  0  0  0  0  0  0  0  0  0
   -5.7408   -0.0326   -1.1184 C   0  0  0  0  0  0  0  0  0  0  0  0
   -6.5412   -0.1185   -1.8660 H   0  0  0  0  0  0  0  0  0  0  0  0
   -4.7077    0.8957   -1.2713 C   0  0  0  0  0  0  0  0  0  0  0  0
   -4.6974    1.5518   -2.1553 H   0  0  0  0  0  0  0  0  0  0  0  0
   -3.6588    0.9772   -0.3263 C   0  0  0  0  0  0  0  0  0  0  0  0
   -2.6051    1.9727   -0.5348 C   0  0  0  0  0  3  0  0  0  0  0  0
   -2.9478    2.9470   -0.9472 H   0  0  0  0  0  0  0  0  0  0  0  0
   -0.4916    3.0194   -0.4873 C   0  0  0  0  0  0  0  0  0  0  0  0
   -1.0863    3.9570   -0.4713 H   0  0  0  0  0  0  0  0  0  0  0  0
    0.0123    2.9079   -1.4727 H   0  0  0  0  0  0  0  0  0  0  0  0
    0.5671    3.0200    0.6112 C   0  0  0  0  0  0  0  0  0  0  0  0
    1.1972    3.9323    0.5461 H   0  0  0  0  0  0  0  0  0  0  0  0
    0.0721    3.0005    1.6067 H   0  0  0  0  0  0  0  0  0  0  0  0
    2.6582    1.9356    0.5498 C   0  0  0  0  0  3  0  0  0  0  0  0
    3.0400    2.9281    0.8764 H   0  0  0  0  0  0  0  0  0  0  0  0
    3.6908    0.9343    0.2876 C   0  0  0  0  0  0  0  0  0  0  0  0
    3.6063    0.0221   -0.7900 C   0  0  0  0  0  0  0  0  0  0  0  0
    2.7288    0.0507   -1.4590 H   0  0  0  0  0  0  0  0  0  0  0  0
    4.6413   -0.8866   -1.0255 C   0  0  0  0  0  0  0  0  0  0  0  0
    4.5803   -1.5956   -1.8627 H   0  0  0  0  0  0  0  0  0  0  0  0
    5.7672   -0.8921   -0.1845 C   0  0  0  0  0  0  0  0  0  0  0  0
    5.8840    0.0256    0.8758 C   0  0  0  0  0  0  0  0  0  0  0  0
    6.7789    0.0129    1.5130 H   0  0  0  0  0  0  0  0  0  0  0  0
    4.8560    0.9461    1.0916 C   0  0  0  0  0  0  0  0  0  0  0  0
    4.9467    1.6735    1.9136 H   0  0  0  0  0  0  0  0  0  0  0  0
  2 30  1  0  0  0  0
  4 23  1  0  0  0  0
  4 20  1  0  0  0  0
  5  7  1  0  0  0  0
  5  6  1  0  0  0  0
  7  8  1  0  0  0  0
  9  1  1  0  0  0  0
  9  7  2  0  0  0  0
 10  9  1  0  0  0  0
 11 10  1  0  0  0  0
 12 10  2  0  0  0  0
 12 14  1  0  0  0  0
 13 12  1  0  0  0  0
 14  5  2  0  0  0  0
 15 14  1  0  0  0  0
 15  3  1  0  0  0  0
 16 15  1  0  0  0  0
 17 18  1  0  0  0  0
 17  3  1  0  0  0  0
 17 20  1  0  0  0  0
 19 17  1  0  0  0  0
 20 22  1  0  0  0  0
 21 20  1  0  0  0  0
 23 24  1  0  0  0  0
 25 23  1  0  0  0  0
 25 33  1  0  0  0  0
 26 25  2  0  0  0  0
 27 26  1  0  0  0  0
 28 26  1  0  0  0  0
 28 30  2  0  0  0  0
 29 28  1  0  0  0  0
 30 31  1  0  0  0  0
 31 33  2  0  0  0  0
 31 32  1  0  0  0  0
 33 34  1  0  0  0  0
M  END
