4,5
 OpenBabel05122313053D

 30 31  0  0  0  0  0  0  0  0999 V2000
    4.1557   -0.5418   -2.0035 S   0  0  0  0  0  0  0  0  0  0  0  0
    4.5849    1.5351    0.0922 O   0  0  0  0  0  0  0  0  0  0  0  0
    5.3912    1.2396    0.5645 H   0  0  0  0  0  0  0  0  0  0  0  0
    1.7038   -1.1216   -1.4585 N   0  0  0  0  0  2  0  0  0  0  0  0
    1.3995    0.3353    0.8205 N   0  0  0  0  0  2  0  0  0  0  0  0
    3.5323    1.0502    0.8720 N   0  0  0  0  0  0  0  0  0  0  0  0
    2.0073   -1.8227   -2.5884 C   0  0  0  0  0  0  0  0  0  0  0  0
    1.2485   -2.4780   -3.0375 H   0  0  0  0  0  0  0  0  0  0  0  0
    3.3033   -1.6342   -3.0387 C   0  0  0  0  0  0  0  0  0  0  0  0
    3.7928   -2.0769   -3.9151 H   0  0  0  0  0  0  0  0  0  0  0  0
    2.7350   -0.4122   -1.0176 C   0  0  0  0  0  0  0  0  0  0  0  0
    2.5588    0.3445    0.2163 C   0  0  0  0  0  0  0  0  0  0  0  0
    2.8288    2.0012    1.7997 C   0  0  0  0  0  0  0  0  0  0  0  0
    1.5450    1.1046    2.0866 C   0  0  0  0  0  0  0  0  0  0  0  0
    3.6967    2.3089    3.0154 C   0  0  0  0  0  0  0  0  0  0  0  0
    4.0554    1.3916    3.5170 H   0  0  0  0  0  0  0  0  0  0  0  0
    3.1298    2.9134    3.7501 H   0  0  0  0  0  0  0  0  0  0  0  0
    4.5777    2.9084    2.7106 H   0  0  0  0  0  0  0  0  0  0  0  0
    2.4990    3.2863    1.0267 C   0  0  0  0  0  0  0  0  0  0  0  0
    2.0013    4.0216    1.6862 H   0  0  0  0  0  0  0  0  0  0  0  0
    1.8368    3.0858    0.1610 H   0  0  0  0  0  0  0  0  0  0  0  0
    3.4328    3.7420    0.6468 H   0  0  0  0  0  0  0  0  0  0  0  0
    1.7826    0.0765    3.2081 C   0  0  0  0  0  0  0  0  0  0  0  0
    0.9345   -0.6344    3.2311 H   0  0  0  0  0  0  0  0  0  0  0  0
    1.8492    0.5698    4.1970 H   0  0  0  0  0  0  0  0  0  0  0  0
    2.7069   -0.5085    3.0383 H   0  0  0  0  0  0  0  0  0  0  0  0
    0.2770    1.9092    2.3701 C   0  0  0  0  0  0  0  0  0  0  0  0
   -0.0085    2.5496    1.5152 H   0  0  0  0  0  0  0  0  0  0  0  0
    0.4108    2.5505    3.2637 H   0  0  0  0  0  0  0  0  0  0  0  0
   -0.5620    1.2161    2.5745 H   0  0  0  0  0  0  0  0  0  0  0  0
  1 11  1  0  0  0  0
  2  3  1  0  0  0  0
  2  6  1  0  0  0  0
  4 11  1  0  0  0  0
  5 14  1  0  0  0  0
  6 13  1  0  0  0  0
  7  4  1  0  0  0  0
  8  7  1  0  0  0  0
  9  7  2  0  0  0  0
  9  1  1  0  0  0  0
 10  9  1  0  0  0  0
 11 12  2  0  0  0  0
 12  5  1  0  0  0  0
 12  6  1  0  0  0  0
 13 14  1  0  0  0  0
 13 15  1  0  0  0  0
 14 27  1  0  0  0  0
 14 23  1  0  0  0  0
 15 16  1  0  0  0  0
 15 17  1  0  0  0  0
 18 15  1  0  0  0  0
 19 20  1  0  0  0  0
 19 13  1  0  0  0  0
 21 19  1  0  0  0  0
 22 19  1  0  0  0  0
 23 24  1  0  0  0  0
 23 25  1  0  0  0  0
 26 23  1  0  0  0  0
 27 30  1  0  0  0  0
 27 29  1  0  0  0  0
 28 27  1  0  0  0  0
M  END
