1,8
 OpenBabel05122313053D

 26 27  0  0  1  0  0  0  0  0999 V2000
    0.1443   -0.0003    1.4601 N   0  0  0  0  0  2  0  0  0  0  0  0
   -0.6388   -0.0005    2.5684 C   0  0  0  0  0  3  0  0  0  0  0  0
   -0.1150   -0.0009    3.8576 C   0  0  0  0  0  0  0  0  0  0  0  0
    1.2851   -0.0010    4.0586 C   0  0  0  0  0  0  0  0  0  0  0  0
    2.0837   -0.0008    2.9047 C   0  0  0  0  0  0  0  0  0  0  0  0
    1.5068   -0.0004    1.6229 C   0  0  0  0  0  0  0  0  0  0  0  0
    1.8761   -0.0014    5.4388 C   0  0  0  0  0  0  0  0  0  0  0  0
    1.4883    0.0002   -0.7667 N   0  0  0  0  0  2  0  0  0  0  0  0
    2.2681   -0.0001    0.3684 C   0  0  1  0  0  3  0  0  0  0  0  0
    3.6695   -0.0001    0.2907 C   0  0  0  0  0  0  0  0  0  0  0  0
    4.2946    0.0002   -0.9645 C   0  0  0  0  0  0  0  0  0  0  0  0
    3.4852    0.0005   -2.1179 C   0  0  0  0  0  0  0  0  0  0  0  0
    2.0990    0.0005   -1.9827 C   0  0  0  0  0  0  0  0  0  0  0  0
    5.7833    0.0003   -1.1294 C   0  0  0  0  0  0  0  0  0  0  0  0
    6.3430    0.0006   -2.2083 O   0  0  0  0  0  0  0  0  0  0  0  0
    6.4295    0.0001    0.0606 O   0  0  0  0  0  0  0  0  0  0  0  0
   -1.7239   -0.0003    2.3911 H   0  0  0  0  0  0  0  0  0  0  0  0
   -0.8048   -0.0011    4.7143 H   0  0  0  0  0  0  0  0  0  0  0  0
    3.1782   -0.0008    3.0026 H   0  0  0  0  0  0  0  0  0  0  0  0
    1.5417    0.8880    6.0118 H   0  0  0  0  0  0  0  0  0  0  0  0
    1.5422   -0.8915    6.0111 H   0  0  0  0  0  0  0  0  0  0  0  0
    2.9817   -0.0011    5.4158 H   0  0  0  0  0  0  0  0  0  0  0  0
    4.2835   -0.0003    1.2003 H   0  0  0  0  0  0  0  0  0  0  0  0
    3.9564    0.0007   -3.1111 H   0  0  0  0  0  0  0  0  0  0  0  0
    1.4078    0.0007   -2.8417 H   0  0  0  0  0  0  0  0  0  0  0  0
    7.3895    0.0001   -0.1475 H   0  0  0  0  0  0  0  0  0  0  0  0
  1  6  1  0  0  0  0
  1  2  1  0  0  0  0
  2  3  1  0  0  0  0
  3  4  2  0  0  0  0
  3 18  1  0  0  0  0
  4  7  1  0  0  0  0
  5 19  1  0  0  0  0
  5  4  1  0  0  0  0
  6  5  2  0  0  0  0
  7 21  1  0  0  0  0
  7 20  1  0  0  0  0
  8  9  1  0  0  0  0
  9  6  1  1  0  0  0
 10  9  1  0  0  0  0
 10 23  1  0  0  0  0
 11 10  2  0  0  0  0
 12 13  2  0  0  0  0
 12 11  1  0  0  0  0
 13  8  1  0  0  0  0
 14 11  1  0  0  0  0
 14 16  1  0  0  0  0
 15 14  2  0  0  0  0
 17  2  1  0  0  0  0
 22  7  1  0  0  0  0
 24 12  1  0  0  0  0
 25 13  1  0  0  0  0
 26 16  1  0  0  0  0
M  END
