1,2
 OpenBabel05122313053D

 26 27  0  0  0  0  0  0  0  0999 V2000
    1.2968    0.8409    0.0002 N   0  0  0  0  0  2  0  0  0  0  0  0
   -1.3251    0.7936   -0.0003 N   0  0  0  0  0  2  0  0  0  0  0  0
   -5.7130    2.6672    0.0011 O   0  0  0  0  0  0  0  0  0  0  0  0
    5.6882    2.7745   -0.0012 O   0  0  0  0  0  0  0  0  0  0  0  0
    5.3917    0.5260    0.0007 O   0  0  0  0  0  0  0  0  0  0  0  0
    0.6957    2.0786   -0.0002 C   0  0  0  0  0  0  0  0  0  0  0  0
   -5.5028    0.4091   -0.0010 O   0  0  0  0  0  0  0  0  0  0  0  0
    1.4702    3.2551   -0.0011 C   0  0  0  0  0  0  0  0  0  0  0  0
   -0.7664    2.0526    0.0001 C   0  0  0  0  0  0  0  0  0  0  0  0
   -3.5239    1.7734    0.0007 C   0  0  0  0  0  0  0  0  0  0  0  0
   -1.5808    3.2002    0.0010 C   0  0  0  0  0  0  0  0  0  0  0  0
   -2.6693    0.6633   -0.0001 C   0  0  0  0  0  0  0  0  0  0  0  0
    2.6466    0.7544    0.0002 C   0  0  0  0  0  0  0  0  0  0  0  0
   -2.9689    3.0697    0.0013 C   0  0  0  0  0  0  0  0  0  0  0  0
    3.4599    1.8942   -0.0005 C   0  0  0  0  0  0  0  0  0  0  0  0
   -4.9972    1.5145    0.0008 C   0  0  0  0  0  0  0  0  0  0  0  0
    2.8601    3.1697   -0.0013 C   0  0  0  0  0  0  0  0  0  0  0  0
    4.9535    1.8029   -0.0007 C   0  0  0  0  0  0  0  0  0  0  0  0
    3.0538   -0.2712    0.0007 H   0  0  0  0  0  0  0  0  0  0  0  0
   -3.0575   -0.3704   -0.0005 H   0  0  0  0  0  0  0  0  0  0  0  0
   -3.6246    3.9505    0.0022 H   0  0  0  0  0  0  0  0  0  0  0  0
    0.9751    4.2349   -0.0018 H   0  0  0  0  0  0  0  0  0  0  0  0
   -1.1192    4.1963    0.0016 H   0  0  0  0  0  0  0  0  0  0  0  0
    6.3721    0.5712    0.0007 H   0  0  0  0  0  0  0  0  0  0  0  0
   -6.6558    2.3939    0.0003 H   0  0  0  0  0  0  0  0  0  0  0  0
    3.5029    4.0616   -0.0021 H   0  0  0  0  0  0  0  0  0  0  0  0
  2 12  1  0  0  0  0
  2  9  1  0  0  0  0
  4 18  2  0  0  0  0
  5 24  1  0  0  0  0
  6  9  2  0  0  0  0
  6  1  1  0  0  0  0
  7 16  2  0  0  0  0
  8  6  1  0  0  0  0
  9 11  1  0  0  0  0
 10 16  1  0  0  0  0
 10 14  1  0  0  0  0
 11 14  2  0  0  0  0
 11 23  1  0  0  0  0
 12 10  2  0  0  0  0
 13  1  1  0  0  0  0
 13 19  1  0  0  0  0
 14 21  1  0  0  0  0
 15 13  2  0  0  0  0
 16  3  1  0  0  0  0
 17  8  2  0  0  0  0
 17 15  1  0  0  0  0
 18 15  1  0  0  0  0
 18  5  1  0  0  0  0
 20 12  1  0  0  0  0
 22  8  1  0  0  0  0
 25  3  1  0  0  0  0
 26 17  1  0  0  0  0
M  END
