1,2
 OpenBabel05122313053D

 32 33  0  0  0  0  0  0  0  0999 V2000
    2.2844    1.1907    0.0798 N   0  0  0  0  0  2  0  0  0  0  0  0
   -0.3309    1.1655    0.0175 N   0  0  0  0  0  2  0  0  0  0  0  0
   -0.5346    3.4611    0.4794 N   0  0  0  0  0  0  0  0  0  0  0  0
   -1.5313    3.2900    0.6450 H   0  0  0  0  0  0  0  0  0  0  0  0
   -0.1140    4.2581    0.9554 H   0  0  0  0  0  0  0  0  0  0  0  0
   -1.6724    1.0846    0.2640 N   0  0  0  0  0  0  0  0  0  0  0  0
    3.6208    1.1245   -0.0665 C   0  0  0  0  0  0  0  0  0  0  0  0
    4.0479    0.1184   -0.1785 H   0  0  0  0  0  0  0  0  0  0  0  0
    4.4242    2.2693   -0.1020 C   0  0  0  0  0  0  0  0  0  0  0  0
    5.5127    2.1653   -0.2095 H   0  0  0  0  0  0  0  0  0  0  0  0
    3.8121    3.5294   -0.0260 C   0  0  0  0  0  0  0  0  0  0  0  0
    4.4125    4.4494   -0.0755 H   0  0  0  0  0  0  0  0  0  0  0  0
    2.4191    3.5994    0.0839 C   0  0  0  0  0  0  0  0  0  0  0  0
    1.9072    4.5719    0.0868 H   0  0  0  0  0  0  0  0  0  0  0  0
    1.6751    2.4083    0.1451 C   0  0  0  0  0  0  0  0  0  0  0  0
    0.2138    2.3531    0.2376 C   0  0  0  0  0  0  0  0  0  0  0  0
   -2.4954    0.6686   -0.6636 C   0  0  0  0  0  0  0  0  0  0  0  0
   -3.9152    0.5255   -0.2611 C   0  0  0  0  0  0  0  0  0  0  0  0
   -4.9144    0.2286   -1.2167 C   0  0  0  0  0  0  0  0  0  0  0  0
   -4.6519    0.1121   -2.2772 H   0  0  0  0  0  0  0  0  0  0  0  0
   -6.2540    0.0890   -0.8290 C   0  0  0  0  0  0  0  0  0  0  0  0
   -7.0191   -0.1381   -1.5860 H   0  0  0  0  0  0  0  0  0  0  0  0
   -6.6183    0.2389    0.5175 C   0  0  0  0  0  0  0  0  0  0  0  0
   -7.6699    0.1256    0.8206 H   0  0  0  0  0  0  0  0  0  0  0  0
   -5.6346    0.5346    1.4788 C   0  0  0  0  0  0  0  0  0  0  0  0
   -5.9164    0.6527    2.5358 H   0  0  0  0  0  0  0  0  0  0  0  0
   -4.2989    0.6780    1.0946 C   0  0  0  0  0  0  0  0  0  0  0  0
   -3.5244    0.9118    1.8392 H   0  0  0  0  0  0  0  0  0  0  0  0
   -2.0840    0.3773   -2.0769 C   0  0  0  0  0  0  0  0  0  0  0  0
   -2.5136    1.1492   -2.7501 H   0  0  0  0  0  0  0  0  0  0  0  0
   -2.4916   -0.5940   -2.4194 H   0  0  0  0  0  0  0  0  0  0  0  0
   -0.9855    0.3731   -2.2078 H   0  0  0  0  0  0  0  0  0  0  0  0
  1 15  1  0  0  0  0
  2 16  1  0  0  0  0
  2  6  1  0  0  0  0
  3  4  1  0  0  0  0
  3  5  1  0  0  0  0
  7  1  1  0  0  0  0
  8  7  1  0  0  0  0
  9  7  2  0  0  0  0
  9 11  1  0  0  0  0
 10  9  1  0  0  0  0
 11 13  2  0  0  0  0
 12 11  1  0  0  0  0
 13 14  1  0  0  0  0
 13 15  1  0  0  0  0
 15 16  2  0  0  0  0
 16  3  1  0  0  0  0
 17 18  1  0  0  0  0
 17  6  2  0  0  0  0
 18 27  1  0  0  0  0
 19 21  1  0  0  0  0
 19 18  2  0  0  0  0
 20 19  1  0  0  0  0
 21 23  2  0  0  0  0
 22 21  1  0  0  0  0
 23 24  1  0  0  0  0
 23 25  1  0  0  0  0
 25 26  1  0  0  0  0
 27 25  2  0  0  0  0
 27 28  1  0  0  0  0
 29 17  1  0  0  0  0
 30 29  1  0  0  0  0
 31 29  1  0  0  0  0
 32 29  1  0  0  0  0
M  END
