4,5
 OpenBabel05122313053D

 33 34  0  0  0  0  0  0  0  0999 V2000
   -1.1824    0.3359    2.1880 O   0  0  0  0  0  0  0  0  0  0  0  0
   -7.5166    0.7879   -1.3922 O   0  0  0  0  0  0  0  0  0  0  0  0
   -7.7581   -0.7058    0.1861 O   0  0  0  0  0  0  0  0  0  0  0  0
    3.1370    0.5435   -0.0525 N   0  0  0  0  0  2  0  0  0  0  0  0
    0.6451    1.1370    0.3646 N   0  0  0  0  0  2  0  0  0  0  0  0
   -0.7272    1.3670    0.1913 N   0  0  0  0  0  0  0  0  0  0  0  0
   -7.0975    0.1079   -0.4567 N   0  0  0  0  0  0  0  0  0  0  0  0
    2.8547    1.8653    0.1763 C   0  0  0  0  0  0  0  0  0  0  0  0
    3.8766    2.8314    0.2419 C   0  0  0  0  0  0  0  0  0  0  0  0
    3.6218    3.8832    0.4272 H   0  0  0  0  0  0  0  0  0  0  0  0
    5.2071    2.4396    0.0698 C   0  0  0  0  0  0  0  0  0  0  0  0
    6.0180    3.1806    0.1189 H   0  0  0  0  0  0  0  0  0  0  0  0
    5.4837    1.0838   -0.1705 C   0  0  0  0  0  0  0  0  0  0  0  0
    6.5117    0.7263   -0.3220 H   0  0  0  0  0  0  0  0  0  0  0  0
    4.4253    0.1730   -0.2235 C   0  0  0  0  0  0  0  0  0  0  0  0
    4.5976   -0.8958   -0.4151 H   0  0  0  0  0  0  0  0  0  0  0  0
    1.4302    2.1885    0.3068 C   0  0  0  0  0  0  0  0  0  0  0  0
   -1.5795    0.7393    1.1028 C   0  0  0  0  0  0  0  0  0  0  0  0
   -3.0071    0.6222    0.6518 C   0  0  0  0  0  0  0  0  0  0  0  0
   -3.5507    1.3693   -0.4151 C   0  0  0  0  0  0  0  0  0  0  0  0
   -2.9369    2.1057   -0.9544 H   0  0  0  0  0  0  0  0  0  0  0  0
   -4.8908    1.2043   -0.7817 C   0  0  0  0  0  0  0  0  0  0  0  0
   -5.3494    1.7710   -1.6026 H   0  0  0  0  0  0  0  0  0  0  0  0
   -5.6720    0.2863   -0.0694 C   0  0  0  0  0  0  0  0  0  0  0  0
   -5.1597   -0.4645    0.9972 C   0  0  0  0  0  0  0  0  0  0  0  0
   -5.8198   -1.1706    1.5181 H   0  0  0  0  0  0  0  0  0  0  0  0
   -3.8220   -0.2860    1.3583 C   0  0  0  0  0  0  0  0  0  0  0  0
   -3.3720   -0.8488    2.1885 H   0  0  0  0  0  0  0  0  0  0  0  0
    0.9445    3.6010    0.3078 C   0  0  0  0  0  0  0  0  0  0  0  0
    1.4869    4.2049    1.0622 H   0  0  0  0  0  0  0  0  0  0  0  0
    1.1201    4.0696   -0.6833 H   0  0  0  0  0  0  0  0  0  0  0  0
   -0.1371    3.6325    0.5253 H   0  0  0  0  0  0  0  0  0  0  0  0
   -0.9309    1.2598   -0.8204 H   0  0  0  0  0  0  0  0  0  0  0  0
  2  7  2  0  0  0  0
  4  8  1  0  0  0  0
  6  5  1  0  0  0  0
  6 18  1  0  0  0  0
  7 24  1  0  0  0  0
  7  3  2  0  0  0  0
  8  9  1  0  0  0  0
  8 17  2  0  0  0  0
  9 10  1  0  0  0  0
 11 12  1  0  0  0  0
 11  9  2  0  0  0  0
 13 11  1  0  0  0  0
 14 13  1  0  0  0  0
 15 13  2  0  0  0  0
 15  4  1  0  0  0  0
 16 15  1  0  0  0  0
 17 29  1  0  0  0  0
 17  5  1  0  0  0  0
 18  1  2  0  0  0  0
 19 18  1  0  0  0  0
 19 27  1  0  0  0  0
 20 19  2  0  0  0  0
 21 20  1  0  0  0  0
 22 20  1  0  0  0  0
 22 24  2  0  0  0  0
 23 22  1  0  0  0  0
 24 25  1  0  0  0  0
 25 27  2  0  0  0  0
 25 26  1  0  0  0  0
 27 28  1  0  0  0  0
 29 32  1  0  0  0  0
 29 30  1  0  0  0  0
 31 29  1  0  0  0  0
 33  6  1  0  0  0  0
M  END
