2,3
 OpenBabel05122313053D

 42 45  0  0  1  0  0  0  0  0999 V2000
    2.1866   -0.0134   -0.5856 P   0  0  0  0  0  0  0  0  0  0  0  0
   -2.6940   -0.3381    0.9279 N   0  0  0  0  0  2  0  0  0  0  0  0
   -0.1024   -0.9643    0.6079 N   0  0  0  0  0  2  0  0  0  0  0  0
   -3.9697    0.0763    1.0989 C   0  0  0  0  0  3  0  0  0  0  0  0
   -4.8897   -0.6199    1.8833 C   0  0  0  0  0  0  0  0  0  0  0  0
   -4.4751   -1.7993    2.5214 C   0  0  0  0  0  0  0  0  0  0  0  0
   -3.1553   -2.2232    2.3561 C   0  0  0  0  0  0  0  0  0  0  0  0
   -2.2736   -1.4748    1.5508 C   0  0  0  0  0  0  0  0  0  0  0  0
   -0.8525   -1.8233    1.3640 C   0  0  2  0  0  3  0  0  0  0  0  0
   -0.2880   -2.9619    1.9672 C   0  0  0  0  0  0  0  0  0  0  0  0
    1.0738   -3.2195    1.8102 C   0  0  0  0  0  0  0  0  0  0  0  0
    1.8449   -2.3200    1.0680 C   0  0  0  0  0  0  0  0  0  0  0  0
    1.2350   -1.1968    0.4779 C   0  0  0  0  0  0  0  0  0  0  0  0
    2.3179    1.4338    0.5519 C   0  0  0  0  0  0  0  0  0  0  0  0
    2.2563    1.3371    1.9578 C   0  0  0  0  0  0  0  0  0  0  0  0
    2.3772    2.4875    2.7503 C   0  0  0  0  0  0  0  0  0  0  0  0
    2.5662    3.7416    2.1487 C   0  0  0  0  0  0  0  0  0  0  0  0
    2.6278    3.8450    0.7506 C   0  0  0  0  0  0  0  0  0  0  0  0
    2.4981    2.6985   -0.0463 C   0  0  0  0  0  0  0  0  0  0  0  0
    3.8838   -0.7468   -0.4947 C   0  0  0  0  0  0  0  0  0  0  0  0
    4.8900   -0.3188    0.3954 C   0  0  0  0  0  0  0  0  0  0  0  0
    6.1625   -0.9112    0.3619 C   0  0  0  0  0  0  0  0  0  0  0  0
    6.4427   -1.9374   -0.5541 C   0  0  0  0  0  0  0  0  0  0  0  0
    5.4481   -2.3642   -1.4500 C   0  0  0  0  0  0  0  0  0  0  0  0
    4.1815   -1.7634   -1.4303 C   0  0  0  0  0  0  0  0  0  0  0  0
   -4.2535    0.9960    0.5690 H   0  0  0  0  0  0  0  0  0  0  0  0
   -5.9160   -0.2401    1.9821 H   0  0  0  0  0  0  0  0  0  0  0  0
   -5.1717   -2.3808    3.1426 H   0  0  0  0  0  0  0  0  0  0  0  0
   -2.8090   -3.1381    2.8526 H   0  0  0  0  0  0  0  0  0  0  0  0
   -0.9151   -3.6450    2.5528 H   0  0  0  0  0  0  0  0  0  0  0  0
    1.5335   -4.1052    2.2730 H   0  0  0  0  0  0  0  0  0  0  0  0
    2.9245   -2.4721    0.9396 H   0  0  0  0  0  0  0  0  0  0  0  0
    2.1084    0.3568    2.4362 H   0  0  0  0  0  0  0  0  0  0  0  0
    2.3177    2.4048    3.8464 H   0  0  0  0  0  0  0  0  0  0  0  0
    2.6525    4.6441    2.7725 H   0  0  0  0  0  0  0  0  0  0  0  0
    2.7615    4.8280    0.2744 H   0  0  0  0  0  0  0  0  0  0  0  0
    2.5169    2.7818   -1.1441 H   0  0  0  0  0  0  0  0  0  0  0  0
    4.6759    0.4833    1.1175 H   0  0  0  0  0  0  0  0  0  0  0  0
    6.9417   -0.5669    1.0593 H   0  0  0  0  0  0  0  0  0  0  0  0
    7.4413   -2.3996   -0.5772 H   0  0  0  0  0  0  0  0  0  0  0  0
    5.6649   -3.1597   -2.1793 H   0  0  0  0  0  0  0  0  0  0  0  0
    3.4088   -2.0824   -2.1487 H   0  0  0  0  0  0  0  0  0  0  0  0
  1 20  1  0  0  0  0
  1 13  1  0  0  0  0
  1 14  1  0  0  0  0
  2  4  1  0  0  0  0
  2  8  1  0  0  0  0
  3  9  1  0  0  0  0
  4  5  1  0  0  0  0
  5 27  1  0  0  0  0
  5  6  2  0  0  0  0
  6 28  1  0  0  0  0
  7  6  1  0  0  0  0
  7 29  1  0  0  0  0
  8  7  2  0  0  0  0
  9  8  1  1  0  0  0
  9 10  1  0  0  0  0
 10 30  1  0  0  0  0
 11 10  2  0  0  0  0
 11 31  1  0  0  0  0
 12 11  1  0  0  0  0
 13  3  1  0  0  0  0
 13 12  2  0  0  0  0
 14 15  1  0  0  0  0
 15 33  1  0  0  0  0
 15 16  2  0  0  0  0
 16 34  1  0  0  0  0
 17 16  1  0  0  0  0
 17 35  1  0  0  0  0
 18 17  2  0  0  0  0
 19 14  2  0  0  0  0
 19 18  1  0  0  0  0
 20 21  1  0  0  0  0
 21 38  1  0  0  0  0
 22 21  2  0  0  0  0
 22 39  1  0  0  0  0
 23 22  1  0  0  0  0
 24 25  1  0  0  0  0
 24 23  2  0  0  0  0
 25 20  2  0  0  0  0
 26  4  1  0  0  0  0
 32 12  1  0  0  0  0
 36 18  1  0  0  0  0
 37 19  1  0  0  0  0
 40 23  1  0  0  0  0
 41 24  1  0  0  0  0
 42 25  1  0  0  0  0
M  END
