5,6
 OpenBabel05122313053D

 37 40  0  0  0  0  0  0  0  0999 V2000
    4.7350    0.5802   -0.1565 N   0  0  0  0  0  0  0  0  0  0  0  0
    5.5463    1.1737   -0.3263 H   0  0  0  0  0  0  0  0  0  0  0  0
    0.7735    1.4594    0.2333 N   0  0  0  0  0  0  0  0  0  0  0  0
   -0.2028    1.6275    0.5535 H   0  0  0  0  0  0  0  0  0  0  0  0
    0.2320   -0.7491    0.6405 N   0  0  0  0  0  2  0  0  0  0  0  0
   -1.9044   -1.6987    1.9899 N   0  0  0  0  0  0  0  0  0  0  0  0
   -2.5268   -1.1532    2.6065 H   0  0  0  0  0  0  0  0  0  0  0  0
   -2.3372   -2.6225    1.8510 H   0  0  0  0  0  0  0  0  0  0  0  0
    4.2656   -3.5318   -0.2938 C   0  0  0  0  0  0  0  0  0  0  0  0
    4.0852   -4.6145   -0.3629 H   0  0  0  0  0  0  0  0  0  0  0  0
    5.5825   -3.0404   -0.4358 C   0  0  0  0  0  0  0  0  0  0  0  0
    6.4112   -3.7439   -0.6022 H   0  0  0  0  0  0  0  0  0  0  0  0
    5.8439   -1.6673   -0.3865 C   0  0  0  0  0  0  0  0  0  0  0  0
    6.8623   -1.2744   -0.5205 H   0  0  0  0  0  0  0  0  0  0  0  0
    4.7553   -0.8082   -0.1776 C   0  0  0  0  0  0  0  0  0  0  0  0
    3.4566    1.0311    0.0233 C   0  0  0  0  0  0  0  0  0  0  0  0
    3.0005    2.3911   -0.0388 C   0  0  0  0  0  0  0  0  0  0  0  0
    3.8218    3.5321   -0.2045 C   0  0  0  0  0  3  0  0  0  0  0  0
    4.9141    3.4177   -0.2755 H   0  0  0  0  0  0  0  0  0  0  0  0
    3.2589    4.8057   -0.2695 C   0  0  0  0  0  0  0  0  0  0  0  0
    3.9045    5.6866   -0.3935 H   0  0  0  0  0  0  0  0  0  0  0  0
    1.8587    4.9642   -0.1695 C   0  0  0  0  0  0  0  0  0  0  0  0
    1.4183    5.9711   -0.2111 H   0  0  0  0  0  0  0  0  0  0  0  0
    1.0252    3.8566   -0.0154 C   0  0  0  0  0  0  0  0  0  0  0  0
   -0.0650    3.9762    0.0740 H   0  0  0  0  0  0  0  0  0  0  0  0
    1.5869    2.5618    0.0482 C   0  0  0  0  0  0  0  0  0  0  0  0
    1.1840    0.1536    0.3702 C   0  0  0  0  0  0  0  0  0  0  0  0
    2.5930   -0.0871    0.1838 C   0  0  0  0  0  0  0  0  0  0  0  0
    0.4788   -1.8998    1.4964 C   0  0  0  0  0  0  0  0  0  0  0  0
    1.5013   -1.8908    1.9249 H   0  0  0  0  0  0  0  0  0  0  0  0
    0.3545   -2.8581    0.9399 H   0  0  0  0  0  0  0  0  0  0  0  0
   -0.5550   -1.8272    2.6152 C   0  0  0  0  0  0  0  0  0  0  0  0
   -0.5101   -2.7085    3.2881 H   0  0  0  0  0  0  0  0  0  0  0  0
   -0.3834   -0.9111    3.2117 H   0  0  0  0  0  0  0  0  0  0  0  0
    3.4134   -1.2776    0.0126 C   0  0  0  0  0  0  0  0  0  0  0  0
    3.1853   -2.6704   -0.0734 C   0  0  0  0  0  0  0  0  0  0  0  0
    2.1753   -3.0877    0.0085 H   0  0  0  0  0  0  0  0  0  0  0  0
  1 16  1  0  0  0  0
  2  1  1  0  0  0  0
  3 27  1  0  0  0  0
  3  4  1  0  0  0  0
  5 29  1  0  0  0  0
  6  7  1  0  0  0  0
  6 32  1  0  0  0  0
  8  6  1  0  0  0  0
  9 36  1  0  0  0  0
 10  9  1  0  0  0  0
 11 13  1  0  0  0  0
 11  9  2  0  0  0  0
 12 11  1  0  0  0  0
 13 15  2  0  0  0  0
 14 13  1  0  0  0  0
 15  1  1  0  0  0  0
 15 35  1  0  0  0  0
 16 28  1  0  0  0  0
 17 16  2  0  0  0  0
 17 26  1  0  0  0  0
 18 17  1  0  0  0  0
 19 18  1  0  0  0  0
 20 18  1  0  0  0  0
 20 22  2  0  0  0  0
 21 20  1  0  0  0  0
 22 24  1  0  0  0  0
 23 22  1  0  0  0  0
 24 26  2  0  0  0  0
 24 25  1  0  0  0  0
 26  3  1  0  0  0  0
 27  5  1  0  0  0  0
 28 27  2  0  0  0  0
 29 30  1  0  0  0  0
 29 32  1  0  0  0  0
 31 29  1  0  0  0  0
 32 34  1  0  0  0  0
 32 33  1  0  0  0  0
 35 28  1  0  0  0  0
 36 37  1  0  0  0  0
 36 35  2  0  0  0  0
M  END
