4,8
 OpenBabel05122313053D

 33 33  0  0  1  0  0  0  0  0999 V2000
    7.0542   -0.0145    0.4845 Cl  0  0  0  0  0  0  0  0  0  0  0  0
    1.4354   -1.8500   -0.3311 N   0  0  0  0  0  0  0  0  0  0  0  0
    1.3673   -2.8055   -0.6878 H   0  0  0  0  0  0  0  0  0  0  0  0
    0.2399    0.1852   -0.6088 N   0  0  0  0  0  2  0  0  0  0  0  0
    1.1282    0.6568   -0.8274 H   0  0  0  0  0  0  0  0  0  0  0  0
   -0.8770   -1.8503   -0.1747 N   0  0  0  0  0  0  0  0  0  0  0  0
   -0.7339   -2.6796    0.4063 H   0  0  0  0  0  0  0  0  0  0  0  0
   -2.5120   -0.1621   -0.4032 N   0  0  0  0  0  2  0  0  0  0  0  0
   -3.5066    0.0908   -0.4608 H   0  0  0  0  0  0  0  0  0  0  0  0
   -3.1204   -2.4165    0.0026 N   0  0  0  0  0  0  0  0  0  0  0  0
   -2.8788   -3.3295   -0.3905 H   0  0  0  0  0  0  0  0  0  0  0  0
    2.7470   -1.3621   -0.1456 C   0  0  0  0  0  0  0  0  0  0  0  0
    3.8208   -2.1294   -0.6441 C   0  0  0  0  0  0  0  0  0  0  0  0
    3.6169   -3.0594   -1.1984 H   0  0  0  0  0  0  0  0  0  0  0  0
    5.1449   -1.7263   -0.4441 C   0  0  0  0  0  0  0  0  0  0  0  0
    5.9772   -2.3295   -0.8321 H   0  0  0  0  0  0  0  0  0  0  0  0
    5.4084   -0.5322    0.2467 C   0  0  0  0  0  0  0  0  0  0  0  0
    4.3490    0.2448    0.7423 C   0  0  0  0  0  0  0  0  0  0  0  0
    4.5599    1.1788    1.2812 H   0  0  0  0  0  0  0  0  0  0  0  0
    3.0236   -0.1664    0.5566 C   0  0  0  0  0  0  0  0  0  0  0  0
    2.2183    0.4622    0.9633 H   0  0  0  0  0  0  0  0  0  0  0  0
    0.2784   -1.0924   -0.3985 C   0  0  2  0  0  3  0  0  0  0  0  0
   -2.2101   -1.4108   -0.2241 C   0  0  2  0  0  3  0  0  0  0  0  0
   -4.5597   -2.1484    0.1568 C   0  0  0  0  0  0  0  0  0  0  0  0
   -4.9070   -1.5303   -0.7074 H   0  0  0  0  0  0  0  0  0  0  0  0
   -4.8455   -1.3827    1.4552 C   0  0  0  0  0  0  0  0  0  0  0  0
   -4.3445   -0.3948    1.4862 H   0  0  0  0  0  0  0  0  0  0  0  0
   -4.5075   -1.9732    2.3306 H   0  0  0  0  0  0  0  0  0  0  0  0
   -5.9343   -1.2038    1.5518 H   0  0  0  0  0  0  0  0  0  0  0  0
   -5.3002   -3.4843    0.1044 C   0  0  0  0  0  0  0  0  0  0  0  0
   -5.1090   -4.0199   -0.8486 H   0  0  0  0  0  0  0  0  0  0  0  0
   -6.3914   -3.3203    0.1831 H   0  0  0  0  0  0  0  0  0  0  0  0
   -4.9920   -4.1376    0.9470 H   0  0  0  0  0  0  0  0  0  0  0  0
  2 12  1  0  0  0  0
  3  2  1  0  0  0  0
  5  4  1  0  0  0  0
  6  7  1  0  0  0  0
  9  8  1  0  0  0  0
 10 24  1  0  0  0  0
 11 10  1  0  0  0  0
 12 20  1  0  0  0  0
 13 15  1  0  0  0  0
 13 12  2  0  0  0  0
 14 13  1  0  0  0  0
 15 17  2  0  0  0  0
 16 15  1  0  0  0  0
 17  1  1  0  0  0  0
 17 18  1  0  0  0  0
 18 19  1  0  0  0  0
 20 18  2  0  0  0  0
 20 21  1  0  0  0  0
 22  4  1  1  0  0  0
 22  2  1  0  0  0  0
 22  6  1  0  0  0  0
 23  8  1  1  0  0  0
 23  6  1  0  0  0  0
 23 10  1  0  0  0  0
 24 26  1  0  0  0  0
 25 24  1  0  0  0  0
 26 27  1  0  0  0  0
 26 29  1  0  0  0  0
 26 28  1  0  0  0  0
 30 24  1  0  0  0  0
 30 32  1  0  0  0  0
 30 33  1  0  0  0  0
 31 30  1  0  0  0  0
M  END
