1,16
 OpenBabel05122313053D

 30 31  0  0  0  0  0  0  0  0999 V2000
   -2.1413   -1.2623   -0.1293 N   0  0  0  0  0  2  0  0  0  0  0  0
   -3.3225   -0.6111    0.0128 C   0  0  0  0  0  0  0  0  0  0  0  0
   -4.5067   -1.1893    0.2245 N   0  0  0  0  0  0  0  0  0  0  0  0
   -4.5364   -2.5357    0.2618 C   0  0  0  0  0  0  0  0  0  0  0  0
   -3.3651   -3.2937    0.0523 C   0  0  0  0  0  0  0  0  0  0  0  0
   -3.3951   -4.3929    0.0472 H   0  0  0  0  0  0  0  0  0  0  0  0
   -2.1509   -2.6170   -0.1436 C   0  0  0  0  0  0  0  0  0  0  0  0
   -0.8409   -3.2968   -0.3883 C   0  0  0  0  0  0  0  0  0  0  0  0
   -0.4009   -2.8986   -1.3277 H   0  0  0  0  0  0  0  0  0  0  0  0
   -0.9465   -4.3956   -0.4450 H   0  0  0  0  0  0  0  0  0  0  0  0
   -0.1196   -3.0423    0.4169 H   0  0  0  0  0  0  0  0  0  0  0  0
   -5.8715   -3.1765    0.5158 C   0  0  0  0  0  0  0  0  0  0  0  0
   -5.8002   -4.2764    0.6034 H   0  0  0  0  0  0  0  0  0  0  0  0
   -6.5712   -2.9255   -0.3078 H   0  0  0  0  0  0  0  0  0  0  0  0
   -6.3181   -2.7610    1.4413 H   0  0  0  0  0  0  0  0  0  0  0  0
   -2.0280    1.3540   -0.5018 N   0  0  0  0  0  2  0  0  0  0  0  0
   -3.2442    0.8759   -0.1283 C   0  0  0  0  0  0  0  0  0  0  0  0
   -4.3417    1.6067    0.0733 N   0  0  0  0  0  0  0  0  0  0  0  0
   -4.2435    2.9346   -0.1340 C   0  0  0  0  0  0  0  0  0  0  0  0
   -3.0285    3.5128   -0.5527 C   0  0  0  0  0  0  0  0  0  0  0  0
   -2.9522    4.5932   -0.7425 H   0  0  0  0  0  0  0  0  0  0  0  0
   -1.9052    2.6865   -0.7251 C   0  0  0  0  0  0  0  0  0  0  0  0
   -5.4849    3.7494    0.0960 C   0  0  0  0  0  0  0  0  0  0  0  0
   -6.3019    3.3821   -0.5576 H   0  0  0  0  0  0  0  0  0  0  0  0
   -5.3223    4.8260   -0.0961 H   0  0  0  0  0  0  0  0  0  0  0  0
   -5.8359    3.6147    1.1394 H   0  0  0  0  0  0  0  0  0  0  0  0
   -0.5601    3.1942   -1.1289 C   0  0  0  0  0  0  0  0  0  0  0  0
    0.1106    3.2196   -0.2429 H   0  0  0  0  0  0  0  0  0  0  0  0
   -0.6159    4.2165   -1.5465 H   0  0  0  0  0  0  0  0  0  0  0  0
   -0.0636    2.5044   -1.8444 H   0  0  0  0  0  0  0  0  0  0  0  0
  1  2  1  0  0  0  0
  2  3  1  0  0  0  0
  3  4  2  0  0  0  0
  4 12  1  0  0  0  0
  5  4  1  0  0  0  0
  6  5  1  0  0  0  0
  7  1  1  0  0  0  0
  7  5  2  0  0  0  0
  8  7  1  0  0  0  0
  8 11  1  0  0  0  0
  9  8  1  0  0  0  0
 10  8  1  0  0  0  0
 12 13  1  0  0  0  0
 12 15  1  0  0  0  0
 14 12  1  0  0  0  0
 16 17  1  0  0  0  0
 17  2  2  0  0  0  0
 17 18  1  0  0  0  0
 19 18  2  0  0  0  0
 19 23  1  0  0  0  0
 20 19  1  0  0  0  0
 21 20  1  0  0  0  0
 22 20  2  0  0  0  0
 22 16  1  0  0  0  0
 23 26  1  0  0  0  0
 24 23  1  0  0  0  0
 25 23  1  0  0  0  0
 27 22  1  0  0  0  0
 27 28  1  0  0  0  0
 29 27  1  0  0  0  0
 30 27  1  0  0  0  0
M  END
