2,3
 OpenBabel05122313053D

 30 32  0  0  1  0  0  0  0  0999 V2000
    1.0664    1.2617    1.1122 S   0  0  0  0  0  0  0  0  0  0  0  0
    0.0375   -1.0522   -0.1212 N   0  0  0  0  0  2  0  0  0  0  0  0
   -2.2167    0.9969   -0.2763 N   0  0  0  0  0  2  0  0  0  0  0  0
    2.1849   -0.7946   -0.2945 N   0  0  0  0  0  0  0  0  0  0  0  0
   -2.9947    1.3100   -1.3303 C   0  0  0  0  0  3  0  0  0  0  0  0
   -3.4719    0.4410   -1.8217 H   0  0  0  0  0  0  0  0  0  0  0  0
   -0.7035    1.5338    1.5512 C   0  0  0  0  0  0  0  0  0  0  0  0
   -1.1076    0.6125    2.0421 H   0  0  0  0  0  0  0  0  0  0  0  0
   -0.6174    2.3341    2.3116 H   0  0  0  0  0  0  0  0  0  0  0  0
    1.0479   -0.2461    0.2348 C   0  0  1  0  0  3  0  0  0  0  0  0
    4.2965   -0.4222   -1.4460 C   0  0  0  0  0  0  0  0  0  0  0  0
    3.8329   -0.8199   -2.3592 H   0  0  0  0  0  0  0  0  0  0  0  0
    1.8370   -1.9346   -0.9704 N   0  0  0  0  0  0  0  0  0  0  0  0
   -1.5619    1.9696    0.3972 C   0  0  0  0  0  0  0  0  0  0  0  0
   -2.4954    3.6538   -1.0709 C   0  0  0  0  0  0  0  0  0  0  0  0
   -2.6066    4.7047   -1.3784 H   0  0  0  0  0  0  0  0  0  0  0  0
   -1.6819    3.3189    0.0193 C   0  0  0  0  0  0  0  0  0  0  0  0
   -1.1391    4.0935    0.5808 H   0  0  0  0  0  0  0  0  0  0  0  0
    3.5387   -0.3461   -0.2644 C   0  0  0  0  0  0  0  0  0  0  0  0
   -3.1629    2.6318   -1.7608 C   0  0  0  0  0  0  0  0  0  0  0  0
   -3.8091    2.8491   -2.6231 H   0  0  0  0  0  0  0  0  0  0  0  0
    4.0991    0.1360    0.9308 C   0  0  0  0  0  0  0  0  0  0  0  0
    3.5045    0.1547    1.8551 H   0  0  0  0  0  0  0  0  0  0  0  0
    6.1979    0.5076   -0.2446 C   0  0  0  0  0  0  0  0  0  0  0  0
    7.2445    0.8463   -0.2375 H   0  0  0  0  0  0  0  0  0  0  0  0
    0.5664   -2.0676   -0.8550 N   0  0  0  0  0  0  0  0  0  0  0  0
    5.4318    0.5717    0.9296 C   0  0  0  0  0  0  0  0  0  0  0  0
    5.8766    0.9505    1.8616 H   0  0  0  0  0  0  0  0  0  0  0  0
    5.6305    0.0037   -1.4267 C   0  0  0  0  0  0  0  0  0  0  0  0
    6.2301   -0.0545   -2.3470 H   0  0  0  0  0  0  0  0  0  0  0  0
  1  7  1  0  0  0  0
  2 10  1  0  0  0  0
  3 14  1  0  0  0  0
  4 19  1  0  0  0  0
  4 10  1  0  0  0  0
  5  3  1  0  0  0  0
  6  5  1  0  0  0  0
  7  8  1  0  0  0  0
  7  9  1  0  0  0  0
 10  1  1  6  0  0  0
 11 29  2  0  0  0  0
 11 19  1  0  0  0  0
 12 11  1  0  0  0  0
 13 26  2  0  0  0  0
 13  4  1  0  0  0  0
 14  7  1  0  0  0  0
 15 17  1  0  0  0  0
 16 15  1  0  0  0  0
 17 14  2  0  0  0  0
 17 18  1  0  0  0  0
 19 22  2  0  0  0  0
 20  5  1  0  0  0  0
 20 15  2  0  0  0  0
 21 20  1  0  0  0  0
 22 23  1  0  0  0  0
 24 25  1  0  0  0  0
 24 27  2  0  0  0  0
 26  2  1  0  0  0  0
 27 22  1  0  0  0  0
 27 28  1  0  0  0  0
 29 24  1  0  0  0  0
 30 29  1  0  0  0  0
M  END
