1,3
 OpenBabel05122313053D

 31 31  0  0  0  0  0  0  0  0999 V2000
    0.7076   -0.7465    0.7748 N   0  0  0  0  0  0  0  0  0  0  0  0
    0.2888   -1.7147    0.6229 H   0  0  0  0  0  0  0  0  0  0  0  0
   -1.4982    1.1920    1.5052 N   0  0  0  0  0  0  0  0  0  0  0  0
   -0.7394    1.9236    1.6634 H   0  0  0  0  0  0  0  0  0  0  0  0
   -2.3542    1.6813    1.1881 H   0  0  0  0  0  0  0  0  0  0  0  0
    0.6973   -0.4777    2.2332 C   0  0  0  0  0  0  0  0  0  0  0  0
    1.4525   -1.1434    2.7020 H   0  0  0  0  0  0  0  0  0  0  0  0
    1.0238    0.5664    2.4111 H   0  0  0  0  0  0  0  0  0  0  0  0
   -0.6634   -0.7599    2.8773 C   0  0  0  0  0  0  0  0  0  0  0  0
   -0.5001   -0.8803    3.9664 H   0  0  0  0  0  0  0  0  0  0  0  0
   -1.0185   -1.7427    2.5106 H   0  0  0  0  0  0  0  0  0  0  0  0
   -1.7508    0.3176    2.6653 C   0  0  0  0  0  0  0  0  0  0  0  0
   -2.7345   -0.1676    2.5236 H   0  0  0  0  0  0  0  0  0  0  0  0
   -1.8245    0.9695    3.5621 H   0  0  0  0  0  0  0  0  0  0  0  0
    2.0619   -0.7071    0.1125 C   0  0  0  0  0  0  0  0  0  0  0  0
    1.8809   -0.2974   -0.9013 H   0  0  0  0  0  0  0  0  0  0  0  0
    3.0993    0.1833    0.8037 C   0  0  0  0  0  0  0  0  0  0  0  0
    2.7102    1.2085    0.9576 H   0  0  0  0  0  0  0  0  0  0  0  0
    3.3450   -0.2179    1.8113 H   0  0  0  0  0  0  0  0  0  0  0  0
    4.3844    0.2164   -0.0367 C   0  0  0  0  0  0  0  0  0  0  0  0
    5.1394    0.8634    0.4560 H   0  0  0  0  0  0  0  0  0  0  0  0
    4.1609    0.6850   -1.0210 H   0  0  0  0  0  0  0  0  0  0  0  0
    4.9433   -1.1953   -0.2578 C   0  0  0  0  0  0  0  0  0  0  0  0
    5.2679   -1.6130    0.7221 H   0  0  0  0  0  0  0  0  0  0  0  0
    5.8507   -1.1563   -0.8958 H   0  0  0  0  0  0  0  0  0  0  0  0
    3.8920   -2.1229   -0.8801 C   0  0  0  0  0  0  0  0  0  0  0  0
    4.2886   -3.1543   -0.9793 H   0  0  0  0  0  0  0  0  0  0  0  0
    3.6581   -1.7762   -1.9109 H   0  0  0  0  0  0  0  0  0  0  0  0
    2.5898   -2.1378   -0.0685 C   0  0  0  0  0  0  0  0  0  0  0  0
    1.8177   -2.7442   -0.5841 H   0  0  0  0  0  0  0  0  0  0  0  0
    2.7644   -2.6031    0.9288 H   0  0  0  0  0  0  0  0  0  0  0  0
  1  6  1  0  0  0  0
  2  1  1  0  0  0  0
  3  4  1  0  0  0  0
  3 12  1  0  0  0  0
  5  3  1  0  0  0  0
  6  8  1  0  0  0  0
  6  7  1  0  0  0  0
  6  9  1  0  0  0  0
  9 10  1  0  0  0  0
 11  9  1  0  0  0  0
 12  9  1  0  0  0  0
 12 14  1  0  0  0  0
 13 12  1  0  0  0  0
 15  1  1  0  0  0  0
 15 17  1  0  0  0  0
 16 15  1  0  0  0  0
 17 18  1  0  0  0  0
 17 19  1  0  0  0  0
 20 21  1  0  0  0  0
 20 17  1  0  0  0  0
 22 20  1  0  0  0  0
 23 20  1  0  0  0  0
 23 24  1  0  0  0  0
 25 23  1  0  0  0  0
 26 23  1  0  0  0  0
 26 29  1  0  0  0  0
 27 26  1  0  0  0  0
 28 26  1  0  0  0  0
 29 15  1  0  0  0  0
 29 31  1  0  0  0  0
 30 29  1  0  0  0  0
M  END
