1,2
 OpenBabel05122313053D

 52 55  0  0  0  0  0  0  0  0999 V2000
    0.9918   -0.6984   -0.0929 N   0  0  0  0  0  0  0  0  0  0  0  0
   -1.4433    1.2792   -0.3134 N   0  0  0  0  0  0  0  0  0  0  0  0
    1.1610   -0.0168    1.1610 C   0  0  0  0  0  0  0  0  0  0  0  0
    1.3972   -0.7863    2.3138 C   0  0  0  0  0  0  0  0  0  0  0  0
    1.5920   -0.1752    3.5590 C   0  0  0  0  0  0  0  0  0  0  0  0
    1.5761    1.2236    3.6557 C   0  0  0  0  0  0  0  0  0  0  0  0
    1.3357    1.9932    2.5092 C   0  0  0  0  0  0  0  0  0  0  0  0
    1.1024    1.3991    1.2505 C   0  0  0  0  0  0  0  0  0  0  0  0
   -0.3993    2.2031   -0.6644 C   0  0  0  0  0  0  0  0  0  0  0  0
   -0.5902    3.0345   -1.7835 C   0  0  0  0  0  0  0  0  0  0  0  0
    0.3913    3.9560   -2.1685 C   0  0  0  0  0  0  0  0  0  0  0  0
    1.5707    4.0725   -1.4182 C   0  0  0  0  0  0  0  0  0  0  0  0
    1.7664    3.2404   -0.3073 C   0  0  0  0  0  0  0  0  0  0  0  0
    0.8090    2.2788    0.0805 C   0  0  0  0  0  0  0  0  0  0  0  0
    2.0340   -0.4224   -1.1443 C   0  0  0  0  0  0  0  0  0  0  0  0
   -2.0138    1.4142    1.0692 C   0  0  0  0  0  0  0  0  0  0  0  0
    3.4037   -0.8403   -0.6700 C   0  0  0  0  0  0  0  0  0  0  0  0
    3.7442   -2.2091   -0.6671 C   0  0  0  0  0  0  0  0  0  0  0  0
    4.9847   -2.6308   -0.1683 C   0  0  0  0  0  0  0  0  0  0  0  0
    5.8983   -1.6884    0.3331 C   0  0  0  0  0  0  0  0  0  0  0  0
    5.5677   -0.3242    0.3319 C   0  0  0  0  0  0  0  0  0  0  0  0
    4.3246    0.0966   -0.1651 C   0  0  0  0  0  0  0  0  0  0  0  0
   -3.1067    0.4084    1.3151 C   0  0  0  0  0  0  0  0  0  0  0  0
   -2.7843   -0.8783    1.7897 C   0  0  0  0  0  0  0  0  0  0  0  0
   -3.7831   -1.8482    1.9453 C   0  0  0  0  0  0  0  0  0  0  0  0
   -5.1160   -1.5391    1.6307 C   0  0  0  0  0  0  0  0  0  0  0  0
   -5.4472   -0.2571    1.1671 C   0  0  0  0  0  0  0  0  0  0  0  0
   -4.4451    0.7111    1.0094 C   0  0  0  0  0  0  0  0  0  0  0  0
    1.4457   -1.8819    2.2180 H   0  0  0  0  0  0  0  0  0  0  0  0
    1.7728   -0.7956    4.4491 H   0  0  0  0  0  0  0  0  0  0  0  0
    1.7422    1.7174    4.6243 H   0  0  0  0  0  0  0  0  0  0  0  0
    1.2931    3.0905    2.5813 H   0  0  0  0  0  0  0  0  0  0  0  0
   -1.5254    2.9415   -2.3570 H   0  0  0  0  0  0  0  0  0  0  0  0
    0.2259    4.5906   -3.0516 H   0  0  0  0  0  0  0  0  0  0  0  0
    2.3424    4.8033   -1.7009 H   0  0  0  0  0  0  0  0  0  0  0  0
    2.6972    3.3109    0.2763 H   0  0  0  0  0  0  0  0  0  0  0  0
    1.7137   -1.0157   -2.0217 H   0  0  0  0  0  0  0  0  0  0  0  0
    1.9914    0.6499   -1.4074 H   0  0  0  0  0  0  0  0  0  0  0  0
   -1.1922    1.2802    1.7948 H   0  0  0  0  0  0  0  0  0  0  0  0
   -2.3930    2.4536    1.1765 H   0  0  0  0  0  0  0  0  0  0  0  0
    3.0223   -2.9418   -1.0649 H   0  0  0  0  0  0  0  0  0  0  0  0
    5.2437   -3.7005   -0.1760 H   0  0  0  0  0  0  0  0  0  0  0  0
    6.8731   -2.0190    0.7228 H   0  0  0  0  0  0  0  0  0  0  0  0
    6.2824    0.4168    0.7212 H   0  0  0  0  0  0  0  0  0  0  0  0
    4.0620    1.1660   -0.1669 H   0  0  0  0  0  0  0  0  0  0  0  0
   -1.7366   -1.1203    2.0291 H   0  0  0  0  0  0  0  0  0  0  0  0
   -3.5185   -2.8537    2.3049 H   0  0  0  0  0  0  0  0  0  0  0  0
   -5.8999   -2.3030    1.7450 H   0  0  0  0  0  0  0  0  0  0  0  0
   -6.4906   -0.0122    0.9179 H   0  0  0  0  0  0  0  0  0  0  0  0
   -4.7039    1.7133    0.6318 H   0  0  0  0  0  0  0  0  0  0  0  0
    1.0083   -1.7240    0.0598 H   0  0  0  0  0  0  0  0  0  0  0  0
   -2.2301    1.3476   -0.9922 H   0  0  0  0  0  0  0  0  0  0  0  0
  1 51  1  0  0  0  0
  1  3  1  0  0  0  0
  2 16  1  0  0  0  0
  3  8  2  0  0  0  0
  3  4  1  0  0  0  0
  4  5  2  0  0  0  0
  5  6  1  0  0  0  0
  5 30  1  0  0  0  0
  6 31  1  0  0  0  0
  7 32  1  0  0  0  0
  7  6  2  0  0  0  0
  8  7  1  0  0  0  0
  9  2  1  0  0  0  0
  9 14  1  0  0  0  0
 10  9  2  0  0  0  0
 11 10  1  0  0  0  0
 11 12  2  0  0  0  0
 12 13  1  0  0  0  0
 13 14  2  0  0  0  0
 13 36  1  0  0  0  0
 14  8  1  0  0  0  0
 15 17  1  0  0  0  0
 15  1  1  0  0  0  0
 16 40  1  0  0  0  0
 16 23  1  0  0  0  0
 16 39  1  0  0  0  0
 17 18  2  0  0  0  0
 17 22  1  0  0  0  0
 18 19  1  0  0  0  0
 19 20  2  0  0  0  0
 20 43  1  0  0  0  0
 21 20  1  0  0  0  0
 21 44  1  0  0  0  0
 22 21  2  0  0  0  0
 23 24  1  0  0  0  0
 24 25  2  0  0  0  0
 24 46  1  0  0  0  0
 25 47  1  0  0  0  0
 26 48  1  0  0  0  0
 26 25  1  0  0  0  0
 27 26  2  0  0  0  0
 28 27  1  0  0  0  0
 28 23  2  0  0  0  0
 29  4  1  0  0  0  0
 33 10  1  0  0  0  0
 34 11  1  0  0  0  0
 35 12  1  0  0  0  0
 37 15  1  0  0  0  0
 38 15  1  0  0  0  0
 41 18  1  0  0  0  0
 42 19  1  0  0  0  0
 45 22  1  0  0  0  0
 49 27  1  0  0  0  0
 50 28  1  0  0  0  0
 52  2  1  0  0  0  0
M  END
