4,6
 OpenBabel05122313053D

 26 28  0  0  1  0  0  0  0  0999 V2000
    1.8444    1.6680   -2.9581 N   0  0  0  0  0  0  0  0  0  0  0  0
    1.3987    1.6876   -3.8774 H   0  0  0  0  0  0  0  0  0  0  0  0
    2.0924    0.4856   -2.3720 N   0  0  0  0  0  0  0  0  0  0  0  0
    2.0299    0.7322    1.7097 N   0  0  0  0  0  2  0  0  0  0  0  0
    3.1471    0.2156    1.1405 N   0  0  0  0  0  0  0  0  0  0  0  0
    1.1362   -1.6056    0.0234 N   0  0  0  0  0  2  0  0  0  0  0  0
    2.4280   -1.5289   -0.3539 N   0  0  0  0  0  0  0  0  0  0  0  0
    2.2020    2.7359   -2.1945 C   0  0  0  0  0  0  0  0  0  0  0  0
    2.0603    3.7668   -2.5362 H   0  0  0  0  0  0  0  0  0  0  0  0
    2.7248    2.2121   -1.0155 C   0  0  0  0  0  0  0  0  0  0  0  0
    3.1131    2.7651   -0.1554 H   0  0  0  0  0  0  0  0  0  0  0  0
    3.1389   -0.2624   -0.2371 C   0  0  1  0  0  0  0  0  0  0  0  0
    4.1963   -0.4878   -0.4838 H   0  0  0  0  0  0  0  0  0  0  0  0
    2.6230    0.8058   -1.1779 C   0  0  0  0  0  0  0  0  0  0  0  0
    2.3676    1.0052    2.9794 C   0  0  0  0  0  3  0  0  0  0  0  0
    1.6242    1.4415    3.6574 H   0  0  0  0  0  0  0  0  0  0  0  0
    3.7172    0.6606    3.2353 C   0  0  0  0  0  0  0  0  0  0  0  0
    4.2772    0.7759    4.1685 H   0  0  0  0  0  0  0  0  0  0  0  0
    4.1850    0.1500    2.0308 C   0  0  0  0  0  0  0  0  0  0  0  0
    5.1652   -0.2421    1.7367 H   0  0  0  0  0  0  0  0  0  0  0  0
    0.7745   -2.8790   -0.1742 C   0  0  0  0  0  3  0  0  0  0  0  0
   -0.2520   -3.1828    0.0635 H   0  0  0  0  0  0  0  0  0  0  0  0
    1.8551   -3.6367   -0.6962 C   0  0  0  0  0  0  0  0  0  0  0  0
    1.8711   -4.6994   -0.9582 H   0  0  0  0  0  0  0  0  0  0  0  0
    2.9085   -2.7333   -0.7953 C   0  0  0  0  0  0  0  0  0  0  0  0
    3.9424   -2.8498   -1.1397 H   0  0  0  0  0  0  0  0  0  0  0  0
  1  3  1  0  0  0  0
  1  8  1  0  0  0  0
  2  1  1  0  0  0  0
  3 14  2  0  0  0  0
  4 15  1  0  0  0  0
  5  4  1  0  0  0  0
  5 19  1  0  0  0  0
  7 12  1  0  0  0  0
  7  6  1  0  0  0  0
  8 10  2  0  0  0  0
  9  8  1  0  0  0  0
 10 11  1  0  0  0  0
 12 13  1  6  0  0  0
 12  5  1  0  0  0  0
 14 10  1  0  0  0  0
 14 12  1  0  0  0  0
 15 17  1  0  0  0  0
 15 16  1  0  0  0  0
 17 18  1  0  0  0  0
 19 17  2  0  0  0  0
 20 19  1  0  0  0  0
 21  6  1  0  0  0  0
 21 22  1  0  0  0  0
 23 21  1  0  0  0  0
 24 23  1  0  0  0  0
 25 23  2  0  0  0  0
 25  7  1  0  0  0  0
 26 25  1  0  0  0  0
M  END
