3,6
 OpenBabel05122313053D

 38 40  0  0  1  0  0  0  0  0999 V2000
   -0.2715    1.9687   -1.9761 N   0  0  0  0  0  0  0  0  0  0  0  0
    0.7759    2.0193   -1.8418 H   0  0  0  0  0  0  0  0  0  0  0  0
   -0.8828    1.1469   -1.1241 N   0  0  0  0  0  2  0  0  0  0  0  0
   -1.9591   -1.5796    0.1653 N   0  0  0  0  0  0  0  0  0  0  0  0
   -2.8678   -1.0082   -0.6586 N   0  0  0  0  0  0  0  0  0  0  0  0
   -2.0820    1.0746    1.5698 N   0  0  0  0  0  2  0  0  0  0  0  0
   -3.2127    0.8242    0.8543 N   0  0  0  0  0  0  0  0  0  0  0  0
   -1.1547    2.6164   -2.7796 C   0  0  0  0  0  3  0  0  0  0  0  0
   -0.8274    3.3323   -3.5414 H   0  0  0  0  0  0  0  0  0  0  0  0
   -2.4331    2.1760   -2.4143 C   0  0  0  0  0  0  0  0  0  0  0  0
   -3.3899    2.4888   -2.8454 H   0  0  0  0  0  0  0  0  0  0  0  0
   -2.1991    1.2562   -1.3615 C   0  0  0  0  0  0  0  0  0  0  0  0
   -3.1602    0.4325   -0.5429 C   0  0  1  0  0  0  0  0  0  0  0  0
   -4.1759    0.5815   -0.9517 H   0  0  0  0  0  0  0  0  0  0  0  0
   -0.8171   -3.7603    0.3667 C   0  0  0  0  0  0  0  0  0  0  0  0
    0.2251   -3.4423    0.1569 H   0  0  0  0  0  0  0  0  0  0  0  0
   -0.9509   -4.7963    0.0042 H   0  0  0  0  0  0  0  0  0  0  0  0
   -0.9595   -3.7532    1.4651 H   0  0  0  0  0  0  0  0  0  0  0  0
   -1.7768   -2.8263   -0.2996 C   0  0  0  0  0  0  0  0  0  0  0  0
   -2.5699   -3.0356   -1.4671 C   0  0  0  0  0  0  0  0  0  0  0  0
   -2.6772   -3.9599   -2.0465 H   0  0  0  0  0  0  0  0  0  0  0  0
   -3.2645   -1.8380   -1.6780 C   0  0  0  0  0  0  0  0  0  0  0  0
   -4.2503   -1.4355   -2.7252 C   0  0  0  0  0  0  0  0  0  0  0  0
   -5.2316   -1.1552   -2.2867 H   0  0  0  0  0  0  0  0  0  0  0  0
   -4.4303   -2.2772   -3.4183 H   0  0  0  0  0  0  0  0  0  0  0  0
   -3.8921   -0.5714   -3.3237 H   0  0  0  0  0  0  0  0  0  0  0  0
   -1.4973    1.6430    3.9019 C   0  0  0  0  0  0  0  0  0  0  0  0
   -1.4386    0.8230    4.6472 H   0  0  0  0  0  0  0  0  0  0  0  0
   -1.7839    2.5623    4.4501 H   0  0  0  0  0  0  0  0  0  0  0  0
   -0.4894    1.7926    3.4683 H   0  0  0  0  0  0  0  0  0  0  0  0
   -2.4839    1.3247    2.8258 C   0  0  2  0  0  3  0  0  0  0  0  0
   -3.8994    1.2235    2.9147 C   0  0  0  0  0  0  0  0  0  0  0  0
   -4.5257    1.3819    3.7988 H   0  0  0  0  0  0  0  0  0  0  0  0
   -4.3428    0.8906    1.6385 C   0  0  0  0  0  0  0  0  0  0  0  0
   -5.7168    0.6416    1.1117 C   0  0  0  0  0  0  0  0  0  0  0  0
   -6.0006    1.3655    0.3187 H   0  0  0  0  0  0  0  0  0  0  0  0
   -6.4536    0.7441    1.9287 H   0  0  0  0  0  0  0  0  0  0  0  0
   -5.8209   -0.3819    0.6940 H   0  0  0  0  0  0  0  0  0  0  0  0
  1  2  1  0  0  0  0
  1  3  1  0  0  0  0
  5 13  1  0  0  0  0
  5  4  1  0  0  0  0
  6 31  1  0  0  0  0
  7  6  1  0  0  0  0
  7 34  1  0  0  0  0
  8 10  1  0  0  0  0
  8  1  1  0  0  0  0
  9  8  1  0  0  0  0
 10 12  2  0  0  0  0
 11 10  1  0  0  0  0
 12  3  1  0  0  0  0
 12 13  1  0  0  0  0
 13 14  1  6  0  0  0
 13  7  1  0  0  0  0
 15 18  1  0  0  0  0
 16 15  1  0  0  0  0
 17 15  1  0  0  0  0
 19  4  2  0  0  0  0
 19 15  1  0  0  0  0
 20 19  1  0  0  0  0
 21 20  1  0  0  0  0
 22 20  2  0  0  0  0
 22  5  1  0  0  0  0
 23 24  1  0  0  0  0
 23 22  1  0  0  0  0
 25 23  1  0  0  0  0
 26 23  1  0  0  0  0
 27 29  1  0  0  0  0
 27 28  1  0  0  0  0
 30 27  1  0  0  0  0
 31 32  1  0  0  0  0
 31 27  1  1  0  0  0
 32 33  1  0  0  0  0
 34 32  2  0  0  0  0
 35 34  1  0  0  0  0
 35 37  1  0  0  0  0
 36 35  1  0  0  0  0
 38 35  1  0  0  0  0
M  END
