1,2
 OpenBabel05122313053D

 31 31  0  0  0  0  0  0  0  0999 V2000
    1.4193   -0.6336   -0.0667 N   0  0  0  0  0  2  0  0  0  0  0  0
   -0.1116    1.6803   -0.3393 N   0  0  0  0  0  0  0  0  0  0  0  0
   -1.0990    1.8712   -0.6042 H   0  0  0  0  0  0  0  0  0  0  0  0
    2.0477   -1.3635    0.8902 C   0  0  0  0  0  3  0  0  0  0  0  0
    1.3866   -1.8201    1.6414 H   0  0  0  0  0  0  0  0  0  0  0  0
    3.4312   -1.5506    0.8919 C   0  0  0  0  0  0  0  0  0  0  0  0
    3.8936   -2.1426    1.6943 H   0  0  0  0  0  0  0  0  0  0  0  0
    4.1988   -0.9832   -0.1361 C   0  0  0  0  0  0  0  0  0  0  0  0
    5.2901   -1.1186   -0.1674 H   0  0  0  0  0  0  0  0  0  0  0  0
    3.5430   -0.2472   -1.1319 C   0  0  0  0  0  0  0  0  0  0  0  0
    4.1009    0.1995   -1.9676 H   0  0  0  0  0  0  0  0  0  0  0  0
    2.1501   -0.0836   -1.0789 C   0  0  0  0  0  0  0  0  0  0  0  0
    1.3805    0.7064   -2.1000 C   0  0  0  0  0  0  0  0  0  0  0  0
    2.0446    0.9871   -2.9420 H   0  0  0  0  0  0  0  0  0  0  0  0
    0.5667    0.0679   -2.5075 H   0  0  0  0  0  0  0  0  0  0  0  0
    0.7572    1.9804   -1.5049 C   0  0  0  0  0  0  0  0  0  0  0  0
    1.5644    2.6778   -1.2074 H   0  0  0  0  0  0  0  0  0  0  0  0
    0.1596    2.4896   -2.2877 H   0  0  0  0  0  0  0  0  0  0  0  0
    0.1486    2.4686    0.9274 C   0  0  0  0  0  0  0  0  0  0  0  0
    1.5824    2.2609    1.4321 C   0  0  0  0  0  0  0  0  0  0  0  0
    1.7629    1.2035    1.6980 H   0  0  0  0  0  0  0  0  0  0  0  0
    1.7365    2.8730    2.3419 H   0  0  0  0  0  0  0  0  0  0  0  0
    2.3491    2.5707    0.6944 H   0  0  0  0  0  0  0  0  0  0  0  0
   -0.1081    3.9604    0.6420 C   0  0  0  0  0  0  0  0  0  0  0  0
    0.5904    4.3662   -0.1174 H   0  0  0  0  0  0  0  0  0  0  0  0
    0.0257    4.5554    1.5668 H   0  0  0  0  0  0  0  0  0  0  0  0
   -1.1455    4.1204    0.2833 H   0  0  0  0  0  0  0  0  0  0  0  0
   -0.8448    1.9641    1.9841 C   0  0  0  0  0  0  0  0  0  0  0  0
   -0.6687    0.8919    2.2087 H   0  0  0  0  0  0  0  0  0  0  0  0
   -1.8914    2.0546    1.6330 H   0  0  0  0  0  0  0  0  0  0  0  0
   -0.7270    2.5469    2.9193 H   0  0  0  0  0  0  0  0  0  0  0  0
  1  4  1  0  0  0  0
  2 19  1  0  0  0  0
  3  2  1  0  0  0  0
  4  6  1  0  0  0  0
  4  5  1  0  0  0  0
  6  7  1  0  0  0  0
  8  6  2  0  0  0  0
  9  8  1  0  0  0  0
 10 12  2  0  0  0  0
 10  8  1  0  0  0  0
 11 10  1  0  0  0  0
 12  1  1  0  0  0  0
 13 16  1  0  0  0  0
 13 12  1  0  0  0  0
 14 13  1  0  0  0  0
 15 13  1  0  0  0  0
 16 17  1  0  0  0  0
 16  2  1  0  0  0  0
 18 16  1  0  0  0  0
 19 20  1  0  0  0  0
 19 28  1  0  0  0  0
 20 21  1  0  0  0  0
 20 22  1  0  0  0  0
 23 20  1  0  0  0  0
 24 19  1  0  0  0  0
 24 26  1  0  0  0  0
 25 24  1  0  0  0  0
 27 24  1  0  0  0  0
 28 29  1  0  0  0  0
 28 31  1  0  0  0  0
 30 28  1  0  0  0  0
M  END
