1,3
 OpenBabel05122313053D

 11 10  0  0  1  0  0  0  0  0999 V2000
    1.3721    0.8735   -1.6729 N   0  0  0  0  0  0  0  0  0  0  0  0
    2.7101    1.2298   -1.2006 N   0  0  0  0  0  2  0  0  0  0  0  0
    1.6375    1.1465    0.9053 N   0  0  0  0  0  2  0  0  0  0  0  0
    2.7080    1.3759    0.1149 C   0  0  2  0  0  3  0  0  0  0  0  0
    4.0186    1.8394    0.7095 C   0  0  0  0  0  0  0  0  0  0  0  0
    0.9755    1.7311   -2.0875 H   0  0  0  0  0  0  0  0  0  0  0  0
    1.5175    0.2446   -2.4752 H   0  0  0  0  0  0  0  0  0  0  0  0
    1.8193    1.3412    1.8944 H   0  0  0  0  0  0  0  0  0  0  0  0
    4.7609    2.0086   -0.0909 H   0  0  0  0  0  0  0  0  0  0  0  0
    3.8723    2.7847    1.2722 H   0  0  0  0  0  0  0  0  0  0  0  0
    4.4135    1.0852    1.4209 H   0  0  0  0  0  0  0  0  0  0  0  0
  1  2  1  0  0  0  0
  3  8  1  0  0  0  0
  4  2  1  6  0  0  0
  4  5  1  0  0  0  0
  4  3  1  0  0  0  0
  5 10  1  0  0  0  0
  5 11  1  0  0  0  0
  6  1  1  0  0  0  0
  7  1  1  0  0  0  0
  9  5  1  0  0  0  0
M  END
