4,5
 OpenBabel05122313053D

 37 37  0  0  0  0  0  0  0  0999 V2000
   -0.2253   -2.2841    0.6399 O   0  0  0  0  0  0  0  0  0  0  0  0
   -1.5522   -0.1699    1.5057 O   0  0  0  0  0  0  0  0  0  0  0  0
    1.5948    2.2063   -0.1560 O   0  0  0  0  0  0  0  0  0  0  0  0
   -1.2782    2.1145   -0.2247 N   0  0  0  0  0  0  0  0  0  0  0  0
    1.4689   -0.1640    1.4620 N   0  0  0  0  0  0  0  0  0  0  0  0
    0.5870   -2.4360    1.7977 C   0  0  0  0  0  0  0  0  0  0  0  0
    1.8325   -1.5756    1.6574 C   0  0  0  0  0  0  0  0  0  0  0  0
    2.6209    0.7448    1.4353 C   0  0  0  0  0  0  0  0  0  0  0  0
    2.1874    2.1686    1.1332 C   0  0  0  0  0  0  0  0  0  0  0  0
    0.8348    3.3679   -0.4454 C   0  0  0  0  0  0  0  0  0  0  0  0
   -0.5585    3.3196    0.1842 C   0  0  0  0  0  0  0  0  0  0  0  0
   -2.5073    1.8394    0.5349 C   0  0  0  0  0  0  0  0  0  0  0  0
   -2.2280    1.0448    1.8087 C   0  0  0  0  0  0  0  0  0  0  0  0
   -2.2681   -1.3867    1.7055 C   0  0  0  0  0  0  0  0  0  0  0  0
   -1.6208   -2.4806    0.8341 C   0  0  0  0  0  0  0  0  0  0  0  0
    0.8795   -3.5031    1.9278 H   0  0  0  0  0  0  0  0  0  0  0  0
    0.0254   -2.1317    2.7122 H   0  0  0  0  0  0  0  0  0  0  0  0
    2.4503   -1.8997    0.7934 H   0  0  0  0  0  0  0  0  0  0  0  0
    2.4605   -1.7182    2.5697 H   0  0  0  0  0  0  0  0  0  0  0  0
    3.3298    0.3870    0.6581 H   0  0  0  0  0  0  0  0  0  0  0  0
    3.1750    0.7405    2.4048 H   0  0  0  0  0  0  0  0  0  0  0  0
    3.0720    2.8463    1.1730 H   0  0  0  0  0  0  0  0  0  0  0  0
    1.4685    2.5199    1.9150 H   0  0  0  0  0  0  0  0  0  0  0  0
    0.7523    3.4034   -1.5523 H   0  0  0  0  0  0  0  0  0  0  0  0
    1.3683    4.2910   -0.1212 H   0  0  0  0  0  0  0  0  0  0  0  0
   -1.1081    4.2594   -0.0679 H   0  0  0  0  0  0  0  0  0  0  0  0
   -0.4676    3.3083    1.2913 H   0  0  0  0  0  0  0  0  0  0  0  0
   -3.1952    1.2468   -0.1011 H   0  0  0  0  0  0  0  0  0  0  0  0
   -3.0421    2.7808    0.8083 H   0  0  0  0  0  0  0  0  0  0  0  0
   -3.1853    0.8513    2.3386 H   0  0  0  0  0  0  0  0  0  0  0  0
   -1.5807    1.6264    2.5058 H   0  0  0  0  0  0  0  0  0  0  0  0
   -3.3290   -1.2879    1.3829 H   0  0  0  0  0  0  0  0  0  0  0  0
   -2.2510   -1.6498    2.7902 H   0  0  0  0  0  0  0  0  0  0  0  0
   -1.8293   -3.4802    1.2798 H   0  0  0  0  0  0  0  0  0  0  0  0
   -2.0606   -2.4593   -0.1797 H   0  0  0  0  0  0  0  0  0  0  0  0
   -1.5102    2.1493   -1.2261 H   0  0  0  0  0  0  0  0  0  0  0  0
    0.8046    0.1172    2.1990 H   0  0  0  0  0  0  0  0  0  0  0  0
  1 15  1  0  0  0  0
  1  6  1  0  0  0  0
  2 14  1  0  0  0  0
  2 13  1  0  0  0  0
  3  9  1  0  0  0  0
  4 11  1  0  0  0  0
  4 12  1  0  0  0  0
  5  7  1  0  0  0  0
  5 37  1  0  0  0  0
  6 16  1  0  0  0  0
  6 17  1  0  0  0  0
  7  6  1  0  0  0  0
  7 19  1  0  0  0  0
  8  5  1  0  0  0  0
  8 21  1  0  0  0  0
  9 22  1  0  0  0  0
  9  8  1  0  0  0  0
  9 23  1  0  0  0  0
 10  3  1  0  0  0  0
 10 25  1  0  0  0  0
 10 11  1  0  0  0  0
 11 27  1  0  0  0  0
 12 29  1  0  0  0  0
 12 13  1  0  0  0  0
 13 30  1  0  0  0  0
 13 31  1  0  0  0  0
 14 33  1  0  0  0  0
 15 34  1  0  0  0  0
 15 14  1  0  0  0  0
 18  7  1  0  0  0  0
 20  8  1  0  0  0  0
 24 10  1  0  0  0  0
 26 11  1  0  0  0  0
 28 12  1  0  0  0  0
 32 14  1  0  0  0  0
 35 15  1  0  0  0  0
 36  4  1  0  0  0  0
M  END
