3,5
 OpenBabel05122313053D

 26 27  0  0  0  0  0  0  0  0999 V2000
    0.8337    2.3128    1.5959 O   0  0  0  0  0  1  0  0  0  0  0  0
   -0.4265   -0.9813   -2.9692 N   0  0  0  0  0  0  0  0  0  0  0  0
   -0.4113    0.9310   -1.6349 N   0  0  0  0  0  2  0  0  0  0  0  0
   -0.4363    2.2177   -1.6147 N   0  0  0  0  0  0  0  0  0  0  0  0
    0.3598    1.9311    0.5218 N   0  0  0  0  0  2  0  0  0  0  0  0
   -0.7329    0.3170   -2.8695 C   0  0  0  0  0  0  0  0  0  0  0  0
   -1.3344    1.0481   -3.9224 C   0  0  0  0  0  0  0  0  0  0  0  0
   -1.5729    2.1097   -3.7798 H   0  0  0  0  0  0  0  0  0  0  0  0
   -1.6079    0.3723   -5.1128 C   0  0  0  0  0  0  0  0  0  0  0  0
   -2.0806    0.9057   -5.9516 H   0  0  0  0  0  0  0  0  0  0  0  0
   -1.2804   -0.9906   -5.2247 C   0  0  0  0  0  0  0  0  0  0  0  0
   -1.4817   -1.5555   -6.1464 H   0  0  0  0  0  0  0  0  0  0  0  0
   -0.6916   -1.6169   -4.1153 C   0  0  0  0  0  0  0  0  0  0  0  0
   -0.4199   -2.6876   -4.1467 H   0  0  0  0  0  0  0  0  0  0  0  0
   -0.0556    2.8086   -0.4662 C   0  0  0  0  0  0  0  0  0  0  0  0
   -0.0628    4.2770   -0.3642 C   0  0  0  0  0  0  0  0  0  0  0  0
   -0.2599    5.0338   -1.5467 C   0  0  0  0  0  0  0  0  0  0  0  0
   -0.3824    4.5021   -2.5003 H   0  0  0  0  0  0  0  0  0  0  0  0
   -0.2943    6.4306   -1.5047 C   0  0  0  0  0  0  0  0  0  0  0  0
   -0.4437    6.9981   -2.4359 H   0  0  0  0  0  0  0  0  0  0  0  0
   -0.1368    7.1076   -0.2833 C   0  0  0  0  0  0  0  0  0  0  0  0
   -0.1627    8.2074   -0.2508 H   0  0  0  0  0  0  0  0  0  0  0  0
    0.0549    6.3682    0.8929 C   0  0  0  0  0  0  0  0  0  0  0  0
    0.1763    6.8870    1.8560 H   0  0  0  0  0  0  0  0  0  0  0  0
    0.0962    4.9672    0.8612 C   0  0  0  0  0  0  0  0  0  0  0  0
    0.2502    4.3982    1.7847 H   0  0  0  0  0  0  0  0  0  0  0  0
  2  6  1  0  0  0  0
  3  4  1  0  0  0  0
  4 15  2  0  0  0  0
  5  1  1  0  0  0  0
  6  3  1  0  0  0  0
  7  8  1  0  0  0  0
  7  6  2  0  0  0  0
  9  7  1  0  0  0  0
 10  9  1  0  0  0  0
 11  9  2  0  0  0  0
 11 13  1  0  0  0  0
 12 11  1  0  0  0  0
 13  2  2  0  0  0  0
 14 13  1  0  0  0  0
 15 16  1  0  0  0  0
 15  5  1  0  0  0  0
 16 25  1  0  0  0  0
 17 19  1  0  0  0  0
 17 16  2  0  0  0  0
 18 17  1  0  0  0  0
 19 21  2  0  0  0  0
 20 19  1  0  0  0  0
 21 22  1  0  0  0  0
 21 23  1  0  0  0  0
 23 24  1  0  0  0  0
 25 23  2  0  0  0  0
 25 26  1  0  0  0  0
M  END
