3,4
 OpenBabel05122313053D

 19 19  0  0  0  0  0  0  0  0999 V2000
    3.1008    2.1296    1.2637 O   0  0  0  0  0  0  0  0  0  0  0  0
   -1.9461    2.2797    1.3870 O   0  0  0  0  0  0  0  0  0  0  0  0
    1.9793   -0.7522   -0.5710 N   0  0  0  0  0  2  0  0  0  0  0  0
    1.0226    1.5627    0.3484 N   0  0  0  0  0  2  0  0  0  0  0  0
    2.4147   -1.9385   -1.0389 C   0  0  0  0  0  3  0  0  0  0  0  0
    3.7341   -2.3778   -0.8677 C   0  0  0  0  0  0  0  0  0  0  0  0
    4.6356   -1.5468   -0.1822 C   0  0  0  0  0  0  0  0  0  0  0  0
    4.1823   -0.3161    0.3081 C   0  0  0  0  0  0  0  0  0  0  0  0
    2.8443    0.0511    0.1002 C   0  0  0  0  0  0  0  0  0  0  0  0
    2.3294    1.3776    0.6426 C   0  0  0  0  0  0  0  0  0  0  0  0
    0.3676    2.7642    0.8023 C   0  0  0  0  0  0  0  0  0  0  0  0
   -0.7642    2.2660    1.6851 C   0  0  0  0  0  0  0  0  0  0  0  0
    1.6725   -2.5536   -1.5742 H   0  0  0  0  0  0  0  0  0  0  0  0
    4.0447   -3.3528   -1.2704 H   0  0  0  0  0  0  0  0  0  0  0  0
    5.6802   -1.8601   -0.0325 H   0  0  0  0  0  0  0  0  0  0  0  0
    4.8179    0.3926    0.8583 H   0  0  0  0  0  0  0  0  0  0  0  0
   -0.0811    3.3387   -0.0428 H   0  0  0  0  0  0  0  0  0  0  0  0
    1.0779    3.4157    1.3617 H   0  0  0  0  0  0  0  0  0  0  0  0
   -0.4035    1.7610    2.6336 H   0  0  0  0  0  0  0  0  0  0  0  0
  2 12  2  0  0  0  0
  3  9  1  0  0  0  0
  4 10  1  0  0  0  0
  4 11  1  0  0  0  0
  5  6  1  0  0  0  0
  5  3  1  0  0  0  0
  6  7  2  0  0  0  0
  7 15  1  0  0  0  0
  7  8  1  0  0  0  0
  8 16  1  0  0  0  0
  9  8  2  0  0  0  0
  9 10  1  0  0  0  0
 10  1  2  0  0  0  0
 11 18  1  0  0  0  0
 11 12  1  0  0  0  0
 12 19  1  0  0  0  0
 13  5  1  0  0  0  0
 14  6  1  0  0  0  0
 17 11  1  0  0  0  0
M  END
