6,10
 OpenBabel05122313053D

 37 38  0  0  0  0  0  0  0  0999 V2000
    2.3665   -0.2258   -1.5588 C   0  0  0  0  0  0  0  0  0  0  0  0
    3.2629   -1.1678   -0.7666 C   0  0  0  0  0  0  0  0  0  0  0  0
    4.1610   -0.4488    0.0596 O   0  0  0  0  0  0  0  0  0  0  0  0
    3.4275    0.3273    0.9907 C   0  0  0  0  0  0  0  0  0  0  0  0
    2.5087    1.3349    0.2991 C   0  0  0  0  0  0  0  0  0  0  0  0
    1.5872    0.6640   -0.6533 N   0  0  0  0  0  0  0  0  0  0  0  0
    0.8404    1.6343   -1.4828 C   0  0  0  0  0  0  0  0  0  0  0  0
   -0.0208    2.6591   -0.7345 C   0  0  0  0  0  0  0  0  0  0  0  0
   -0.9506    2.1593    0.3802 C   0  0  0  0  0  0  0  0  0  0  0  0
   -1.6565    0.8903    0.0902 N   0  0  0  0  0  0  0  0  0  0  0  0
   -2.5820    0.5711    1.2138 C   0  0  0  0  0  0  0  0  0  0  0  0
   -3.3569   -0.7073    0.9212 C   0  0  0  0  0  0  0  0  0  0  0  0
   -4.1201   -0.5875   -0.2686 O   0  0  0  0  0  0  0  0  0  0  0  0
   -3.2620   -0.3280   -1.3660 C   0  0  0  0  0  0  0  0  0  0  0  0
   -2.4528    0.9525   -1.1613 C   0  0  0  0  0  0  0  0  0  0  0  0
    2.9945    0.4065   -2.2304 H   0  0  0  0  0  0  0  0  0  0  0  0
    1.6464   -0.8128   -2.1638 H   0  0  0  0  0  0  0  0  0  0  0  0
    2.6276   -1.8644   -0.1667 H   0  0  0  0  0  0  0  0  0  0  0  0
    3.8674   -1.7776   -1.4667 H   0  0  0  0  0  0  0  0  0  0  0  0
    4.1599    0.8744    1.6169 H   0  0  0  0  0  0  0  0  0  0  0  0
    2.8095   -0.3198    1.6560 H   0  0  0  0  0  0  0  0  0  0  0  0
    1.9152    1.8643    1.0697 H   0  0  0  0  0  0  0  0  0  0  0  0
    3.1207    2.0824   -0.2609 H   0  0  0  0  0  0  0  0  0  0  0  0
    0.2149    1.0239   -2.1668 H   0  0  0  0  0  0  0  0  0  0  0  0
    1.5577    2.1921   -2.1324 H   0  0  0  0  0  0  0  0  0  0  0  0
   -0.6115    3.1851   -1.5133 H   0  0  0  0  0  0  0  0  0  0  0  0
    0.6258    3.4410   -0.2857 H   0  0  0  0  0  0  0  0  0  0  0  0
   -0.3846    1.9758    1.3182 H   0  0  0  0  0  0  0  0  0  0  0  0
   -1.6954    2.9608    0.6041 H   0  0  0  0  0  0  0  0  0  0  0  0
   -3.2960    1.4192    1.3425 H   0  0  0  0  0  0  0  0  0  0  0  0
   -1.9759    0.4561    2.1350 H   0  0  0  0  0  0  0  0  0  0  0  0
   -2.6479   -1.5682    0.8508 H   0  0  0  0  0  0  0  0  0  0  0  0
   -4.0650   -0.9103    1.7485 H   0  0  0  0  0  0  0  0  0  0  0  0
   -3.9018   -0.2165   -2.2641 H   0  0  0  0  0  0  0  0  0  0  0  0
   -2.5549   -1.1749   -1.5297 H   0  0  0  0  0  0  0  0  0  0  0  0
   -1.7818    1.1014   -2.0289 H   0  0  0  0  0  0  0  0  0  0  0  0
   -3.1408    1.8308   -1.1037 H   0  0  0  0  0  0  0  0  0  0  0  0
  1  2  1  0  0  0  0
  1  6  1  0  0  0  0
  2 18  1  0  0  0  0
  2  3  1  0  0  0  0
  3  4  1  0  0  0  0
  4 20  1  0  0  0  0
  4 21  1  0  0  0  0
  5  4  1  0  0  0  0
  5 22  1  0  0  0  0
  6  5  1  0  0  0  0
  7  8  1  0  0  0  0
  7  6  1  0  0  0  0
  8 27  1  0  0  0  0
  8  9  1  0  0  0  0
  9 29  1  0  0  0  0
  9 28  1  0  0  0  0
 10  9  1  0  0  0  0
 10 11  1  0  0  0  0
 11 30  1  0  0  0  0
 11 31  1  0  0  0  0
 12 11  1  0  0  0  0
 12 33  1  0  0  0  0
 13 12  1  0  0  0  0
 14 15  1  0  0  0  0
 14 13  1  0  0  0  0
 15 37  1  0  0  0  0
 15 10  1  0  0  0  0
 16  1  1  0  0  0  0
 17  1  1  0  0  0  0
 19  2  1  0  0  0  0
 23  5  1  0  0  0  0
 24  7  1  0  0  0  0
 25  7  1  0  0  0  0
 26  8  1  0  0  0  0
 32 12  1  0  0  0  0
 34 14  1  0  0  0  0
 35 14  1  0  0  0  0
 36 15  1  0  0  0  0
M  END
