8,16
 OpenBabel05122313053D

 37 38  0  0  0  0  0  0  0  0999 V2000
    2.4931   -0.5503    0.0403 N   0  0  0  0  0  0  0  0  0  0  0  0
    2.6256   -1.2057    1.3407 C   0  0  0  0  0  0  0  0  0  0  0  0
    3.6600   -1.5859    1.5329 H   0  0  0  0  0  0  0  0  0  0  0  0
    2.4395   -0.4268    2.1140 H   0  0  0  0  0  0  0  0  0  0  0  0
    1.6556   -2.3720    1.5671 C   0  0  0  0  0  0  0  0  0  0  0  0
    1.8142   -2.7362    2.6059 H   0  0  0  0  0  0  0  0  0  0  0  0
    1.9433   -3.2285    0.9225 H   0  0  0  0  0  0  0  0  0  0  0  0
    0.2461   -2.0370    1.3207 N   0  0  0  0  0  0  0  0  0  0  0  0
   -0.2538   -1.9411    2.2090 H   0  0  0  0  0  0  0  0  0  0  0  0
   -0.4885   -2.9621    0.4585 C   0  0  0  0  0  0  0  0  0  0  0  0
   -0.3986   -4.0300    0.7770 H   0  0  0  0  0  0  0  0  0  0  0  0
   -1.5602   -2.6998    0.5374 H   0  0  0  0  0  0  0  0  0  0  0  0
   -0.0526   -2.8825   -1.0170 C   0  0  0  0  0  0  0  0  0  0  0  0
   -0.8168   -3.4027   -1.6320 H   0  0  0  0  0  0  0  0  0  0  0  0
    0.8819   -3.4622   -1.1609 H   0  0  0  0  0  0  0  0  0  0  0  0
    0.1614   -1.4988   -1.5010 N   0  0  0  0  0  0  0  0  0  0  0  0
   -0.5627   -1.2676   -2.1896 H   0  0  0  0  0  0  0  0  0  0  0  0
    1.4821   -1.2788   -2.1267 C   0  0  0  0  0  0  0  0  0  0  0  0
    1.6659   -1.9815   -2.9748 H   0  0  0  0  0  0  0  0  0  0  0  0
    1.4783   -0.2530   -2.5499 H   0  0  0  0  0  0  0  0  0  0  0  0
    2.6377   -1.4221   -1.1275 C   0  0  0  0  0  0  0  0  0  0  0  0
    3.5943   -1.2397   -1.6642 H   0  0  0  0  0  0  0  0  0  0  0  0
    2.7075   -2.4771   -0.7987 H   0  0  0  0  0  0  0  0  0  0  0  0
    3.2652    0.7019   -0.0627 C   0  0  0  0  0  0  0  0  0  0  0  0
    2.9692    1.1962   -1.0118 H   0  0  0  0  0  0  0  0  0  0  0  0
    2.9288    1.3626    0.7655 H   0  0  0  0  0  0  0  0  0  0  0  0
    4.7740    0.5582   -0.0248 C   0  0  0  0  0  0  0  0  0  0  0  0
    5.4638    0.4644    1.2028 C   0  0  0  0  0  0  0  0  0  0  0  0
    4.9089    0.5662    2.1490 H   0  0  0  0  0  0  0  0  0  0  0  0
    6.8522    0.2690    1.2340 C   0  0  0  0  0  0  0  0  0  0  0  0
    7.3749    0.2046    2.2002 H   0  0  0  0  0  0  0  0  0  0  0  0
    7.5766    0.1692    0.0351 C   0  0  0  0  0  0  0  0  0  0  0  0
    8.6663    0.0192    0.0594 H   0  0  0  0  0  0  0  0  0  0  0  0
    6.9078    0.2808   -1.1935 C   0  0  0  0  0  0  0  0  0  0  0  0
    7.4726    0.2256   -2.1362 H   0  0  0  0  0  0  0  0  0  0  0  0
    5.5187    0.4774   -1.2206 C   0  0  0  0  0  0  0  0  0  0  0  0
    5.0060    0.5946   -2.1895 H   0  0  0  0  0  0  0  0  0  0  0  0
  1  2  1  0  0  0  0
  2  3  1  0  0  0  0
  2  5  1  0  0  0  0
  2  4  1  0  0  0  0
  5  6  1  0  0  0  0
  7  5  1  0  0  0  0
  8  5  1  0  0  0  0
  8  9  1  0  0  0  0
 10 12  1  0  0  0  0
 10 11  1  0  0  0  0
 10  8  1  0  0  0  0
 13 10  1  0  0  0  0
 14 13  1  0  0  0  0
 15 13  1  0  0  0  0
 16 13  1  0  0  0  0
 17 16  1  0  0  0  0
 18 16  1  0  0  0  0
 18 21  1  0  0  0  0
 19 18  1  0  0  0  0
 20 18  1  0  0  0  0
 21 23  1  0  0  0  0
 21  1  1  0  0  0  0
 22 21  1  0  0  0  0
 24 27  1  0  0  0  0
 24  1  1  0  0  0  0
 24 26  1  0  0  0  0
 25 24  1  0  0  0  0
 27 28  1  0  0  0  0
 28 30  2  0  0  0  0
 28 29  1  0  0  0  0
 30 31  1  0  0  0  0
 32 33  1  0  0  0  0
 32 30  1  0  0  0  0
 34 32  2  0  0  0  0
 35 34  1  0  0  0  0
 36 34  1  0  0  0  0
 36 27  2  0  0  0  0
 37 36  1  0  0  0  0
M  END
