3,5
 OpenBabel05122313053D

 34 36  0  0  0  0  0  0  0  0999 V2000
    1.2444    0.2754    0.3325 N   0  0  0  0  0  0  0  0  0  0  0  0
   -0.0426   -1.1263    1.7843 N   0  0  0  0  0  0  0  0  0  0  0  0
   -1.2033   -0.9498    1.1152 N   0  0  0  0  0  2  0  0  0  0  0  0
    0.1337    2.3606    0.1016 N   0  0  0  0  0  0  0  0  0  0  0  0
   -0.8923    1.8348   -0.5989 N   0  0  0  0  0  2  0  0  0  0  0  0
    3.6323    0.3872   -0.1246 N   0  0  0  0  0  0  0  0  0  0  0  0
    4.0457    1.4642    0.5819 N   0  0  0  0  0  0  0  0  0  0  0  0
    1.2498   -0.9298    1.1318 C   0  0  0  0  0  0  0  0  0  0  0  0
   -2.1934   -1.2493    1.9749 C   0  0  0  0  0  3  0  0  0  0  0  0
   -1.6539   -1.6379    3.2213 C   0  0  0  0  0  0  0  0  0  0  0  0
   -0.2726   -1.5428    3.0618 C   0  0  0  0  0  0  0  0  0  0  0  0
    0.9388    1.5207    0.9961 C   0  0  0  0  0  0  0  0  0  0  0  0
   -1.5141    2.8640   -1.1984 C   0  0  0  0  0  3  0  0  0  0  0  0
   -0.8721    4.0795   -0.8758 C   0  0  0  0  0  0  0  0  0  0  0  0
    0.1813    3.7142   -0.0373 C   0  0  0  0  0  0  0  0  0  0  0  0
    2.2844    0.3517   -0.6775 C   0  0  0  0  0  0  0  0  0  0  0  0
    5.2659    1.1298    1.0284 C   0  0  0  0  0  0  0  0  0  0  0  0
    5.6401   -0.1736    0.6085 C   0  0  0  0  0  0  0  0  0  0  0  0
    4.5524   -0.6271   -0.1333 C   0  0  0  0  0  0  0  0  0  0  0  0
   -3.2438   -1.1550    1.6617 H   0  0  0  0  0  0  0  0  0  0  0  0
   -2.1986   -1.9396    4.1209 H   0  0  0  0  0  0  0  0  0  0  0  0
    0.5582   -1.7409    3.7481 H   0  0  0  0  0  0  0  0  0  0  0  0
   -2.3922    2.6636   -1.8247 H   0  0  0  0  0  0  0  0  0  0  0  0
   -1.1312    5.0873   -1.2140 H   0  0  0  0  0  0  0  0  0  0  0  0
    0.9547    4.3040    0.4673 H   0  0  0  0  0  0  0  0  0  0  0  0
    5.8396    1.8452    1.6317 H   0  0  0  0  0  0  0  0  0  0  0  0
    6.5761   -0.7062    0.8055 H   0  0  0  0  0  0  0  0  0  0  0  0
    4.3501   -1.5627   -0.6699 H   0  0  0  0  0  0  0  0  0  0  0  0
    1.4749   -1.7819    0.4520 H   0  0  0  0  0  0  0  0  0  0  0  0
    2.0056   -0.9389    1.9531 H   0  0  0  0  0  0  0  0  0  0  0  0
    0.3550    1.3066    1.9150 H   0  0  0  0  0  0  0  0  0  0  0  0
    1.8453    2.1083    1.2609 H   0  0  0  0  0  0  0  0  0  0  0  0
    2.1192    1.2672   -1.2772 H   0  0  0  0  0  0  0  0  0  0  0  0
    2.2273   -0.5299   -1.3425 H   0  0  0  0  0  0  0  0  0  0  0  0
  1 12  1  0  0  0  0
  1  8  1  0  0  0  0
  2 11  1  0  0  0  0
  3  2  1  0  0  0  0
  3  9  1  0  0  0  0
  4 12  1  0  0  0  0
  5  4  1  0  0  0  0
  6  7  1  0  0  0  0
  7 17  2  0  0  0  0
  8  2  1  0  0  0  0
  8 30  1  0  0  0  0
  9 10  1  0  0  0  0
 10 21  1  0  0  0  0
 11 10  2  0  0  0  0
 11 22  1  0  0  0  0
 12 32  1  0  0  0  0
 12 31  1  0  0  0  0
 13 14  1  0  0  0  0
 13  5  1  0  0  0  0
 14 15  2  0  0  0  0
 15  4  1  0  0  0  0
 15 25  1  0  0  0  0
 16  6  1  0  0  0  0
 16  1  1  0  0  0  0
 17 26  1  0  0  0  0
 18 27  1  0  0  0  0
 18 17  1  0  0  0  0
 19  6  1  0  0  0  0
 19 18  2  0  0  0  0
 20  9  1  0  0  0  0
 23 13  1  0  0  0  0
 24 14  1  0  0  0  0
 28 19  1  0  0  0  0
 29  8  1  0  0  0  0
 33 16  1  0  0  0  0
 34 16  1  0  0  0  0
M  END
