2,3
 OpenBabel05122313053D

 27 28  0  0  0  0  0  0  0  0999 V2000
    2.7454    2.8164    0.3089 O   0  0  0  0  0  0  0  0  0  0  0  0
   -2.2020    1.3647   -0.0027 N   0  0  0  0  0  2  0  0  0  0  0  0
    0.3897    1.1081    0.0073 N   0  0  0  0  0  2  0  0  0  0  0  0
    1.6889    0.7806   -0.0475 N   0  0  0  0  0  0  0  0  0  0  0  0
    1.9116   -0.2095   -0.2269 H   0  0  0  0  0  0  0  0  0  0  0  0
    3.9554   -0.5259   -0.0914 N   0  0  0  0  0  0  0  0  0  0  0  0
   -3.5406    1.4412   -0.1063 C   0  0  0  0  0  3  0  0  0  0  0  0
   -4.0780    0.4898   -0.2173 H   0  0  0  0  0  0  0  0  0  0  0  0
   -4.2226    2.6640   -0.0859 C   0  0  0  0  0  0  0  0  0  0  0  0
   -5.3185    2.6730   -0.1666 H   0  0  0  0  0  0  0  0  0  0  0  0
   -3.4869    3.8542    0.0300 C   0  0  0  0  0  0  0  0  0  0  0  0
   -3.9957    4.8289    0.0466 H   0  0  0  0  0  0  0  0  0  0  0  0
   -2.0930    3.7807    0.1085 C   0  0  0  0  0  0  0  0  0  0  0  0
   -1.4726    4.6855    0.1761 H   0  0  0  0  0  0  0  0  0  0  0  0
   -1.4700    2.5181    0.0835 C   0  0  0  0  0  0  0  0  0  0  0  0
   -0.0349    2.3473    0.1011 C   0  0  0  0  0  3  0  0  0  0  0  0
    0.6733    3.1869    0.1534 H   0  0  0  0  0  0  0  0  0  0  0  0
    2.7974    1.6071    0.1173 C   0  0  0  0  0  0  0  0  0  0  0  0
    4.0734    0.8122    0.0393 C   0  0  0  0  0  0  0  0  0  0  0  0
    5.3050    1.4819    0.1051 C   0  0  0  0  0  0  0  0  0  0  0  0
    5.3187    2.5756    0.2136 H   0  0  0  0  0  0  0  0  0  0  0  0
    6.4745    0.7131    0.0244 C   0  0  0  0  0  0  0  0  0  0  0  0
    7.4631    1.1939    0.0688 H   0  0  0  0  0  0  0  0  0  0  0  0
    6.3617   -0.6776   -0.1160 C   0  0  0  0  0  0  0  0  0  0  0  0
    7.2538   -1.3169   -0.1847 H   0  0  0  0  0  0  0  0  0  0  0  0
    5.0791   -1.2524   -0.1686 C   0  0  0  0  0  0  0  0  0  0  0  0
    4.9565   -2.3433   -0.2775 H   0  0  0  0  0  0  0  0  0  0  0  0
  2 15  1  0  0  0  0
  3 16  1  0  0  0  0
  4  3  1  0  0  0  0
  4 18  1  0  0  0  0
  5  4  1  0  0  0  0
  6 19  1  0  0  0  0
  7  9  1  0  0  0  0
  7  2  1  0  0  0  0
  8  7  1  0  0  0  0
  9 11  2  0  0  0  0
 10  9  1  0  0  0  0
 11 12  1  0  0  0  0
 11 13  1  0  0  0  0
 13 14  1  0  0  0  0
 15 16  1  0  0  0  0
 15 13  2  0  0  0  0
 16 17  1  0  0  0  0
 18  1  2  0  0  0  0
 19 20  2  0  0  0  0
 19 18  1  0  0  0  0
 20 21  1  0  0  0  0
 22 23  1  0  0  0  0
 22 20  1  0  0  0  0
 24 22  2  0  0  0  0
 25 24  1  0  0  0  0
 26 24  1  0  0  0  0
 26  6  2  0  0  0  0
 27 26  1  0  0  0  0
M  END
