1,27
 OpenBabel05122313053D

 47 49  0  0  1  0  0  0  0  0999 V2000
   -1.9001    1.9882   -0.0466 N   0  0  0  0  0  2  0  0  0  0  0  0
   -2.7167    2.8945    0.5184 C   0  0  0  0  0  3  0  0  0  0  0  0
   -3.6429    2.4922    0.9615 H   0  0  0  0  0  0  0  0  0  0  0  0
   -2.3997    4.2578    0.5442 C   0  0  0  0  0  0  0  0  0  0  0  0
   -3.0871    4.9747    1.0147 H   0  0  0  0  0  0  0  0  0  0  0  0
   -1.1907    4.6725   -0.0334 C   0  0  0  0  0  0  0  0  0  0  0  0
   -0.9036    5.7349   -0.0256 H   0  0  0  0  0  0  0  0  0  0  0  0
   -0.3441    3.7164   -0.6127 C   0  0  0  0  0  0  0  0  0  0  0  0
    0.6150    4.0055   -1.0677 H   0  0  0  0  0  0  0  0  0  0  0  0
   -0.7332    2.3680   -0.6082 C   0  0  0  0  0  0  0  0  0  0  0  0
    0.0868    1.2701   -1.2575 C   0  0  0  0  0  0  0  0  0  0  0  0
   -0.3723    1.0696   -2.2480 H   0  0  0  0  0  0  0  0  0  0  0  0
    1.1297    1.6223   -1.4267 H   0  0  0  0  0  0  0  0  0  0  0  0
    0.0058    0.0356   -0.4793 N   0  0  0  0  0  0  0  0  0  0  0  0
    0.1844   -1.1997   -1.2394 C   0  0  0  0  0  0  0  0  0  0  0  0
    1.2520   -1.4715   -1.4031 H   0  0  0  0  0  0  0  0  0  0  0  0
   -0.2878   -1.0502   -2.2329 H   0  0  0  0  0  0  0  0  0  0  0  0
   -0.5481   -2.3491   -0.5749 C   0  0  2  0  0  3  0  0  0  0  0  0
   -0.0558   -3.6633   -0.5616 C   0  0  0  0  0  0  0  0  0  0  0  0
    0.9231   -3.8831   -1.0132 H   0  0  0  0  0  0  0  0  0  0  0  0
   -0.8264   -4.6744    0.0302 C   0  0  0  0  0  0  0  0  0  0  0  0
   -0.4582   -5.7113    0.0516 H   0  0  0  0  0  0  0  0  0  0  0  0
   -2.0644   -4.3471    0.6026 C   0  0  0  0  0  0  0  0  0  0  0  0
   -2.6947   -5.1089    1.0824 H   0  0  0  0  0  0  0  0  0  0  0  0
   -2.4858   -3.0129    0.5591 C   0  0  0  0  0  0  0  0  0  0  0  0
   -3.4407   -2.6775    0.9968 H   0  0  0  0  0  0  0  0  0  0  0  0
   -1.7413   -2.0536   -0.0180 N   0  0  0  0  0  2  0  0  0  0  0  0
    0.7600    0.0746    0.7994 C   0  0  0  0  0  0  0  0  0  0  0  0
    0.4597   -0.8141    1.3867 H   0  0  0  0  0  0  0  0  0  0  0  0
    0.3890    0.9442    1.3746 H   0  0  0  0  0  0  0  0  0  0  0  0
    2.2611    0.1345    0.6338 C   0  0  0  0  0  0  0  0  0  0  0  0
    2.9276    1.3746    0.5247 C   0  0  0  0  0  0  0  0  0  0  0  0
    2.3516    2.3071    0.6369 H   0  0  0  0  0  0  0  0  0  0  0  0
    4.3075    1.4323    0.3047 C   0  0  0  0  0  0  0  0  0  0  0  0
    4.8390    2.3916    0.2207 H   0  0  0  0  0  0  0  0  0  0  0  0
    5.0574    0.2446    0.1955 C   0  0  0  0  0  0  0  0  0  0  0  0
    4.4088   -0.9998    0.3257 C   0  0  0  0  0  0  0  0  0  0  0  0
    5.0011   -1.9230    0.2617 H   0  0  0  0  0  0  0  0  0  0  0  0
    3.0268   -1.0481    0.5447 C   0  0  0  0  0  0  0  0  0  0  0  0
    2.5283   -2.0224    0.6722 H   0  0  0  0  0  0  0  0  0  0  0  0
    6.5273    0.3676   -0.0415 C   0  0  0  0  0  0  0  0  0  0  0  0
    7.1246    1.4246   -0.1571 O   0  0  0  0  0  0  0  0  0  0  0  0
    7.1364   -0.8436   -0.1172 O   0  0  0  0  0  0  0  0  0  0  0  0
    8.5493   -0.8012   -0.3411 C   0  0  0  0  0  0  0  0  0  0  0  0
    8.7828   -0.2867   -1.2953 H   0  0  0  0  0  0  0  0  0  0  0  0
    8.8867   -1.8522   -0.3763 H   0  0  0  0  0  0  0  0  0  0  0  0
    9.0625   -0.2566    0.4771 H   0  0  0  0  0  0  0  0  0  0  0  0
  1  2  1  0  0  0  0
  2  4  1  0  0  0  0
  2  3  1  0  0  0  0
  4  5  1  0  0  0  0
  6  7  1  0  0  0  0
  6  4  2  0  0  0  0
  8 10  2  0  0  0  0
  8  6  1  0  0  0  0
  9  8  1  0  0  0  0
 10  1  1  0  0  0  0
 11 10  1  0  0  0  0
 11 14  1  0  0  0  0
 12 11  1  0  0  0  0
 13 11  1  0  0  0  0
 14 28  1  0  0  0  0
 15 14  1  0  0  0  0
 16 15  1  0  0  0  0
 17 15  1  0  0  0  0
 18 15  1  6  0  0  0
 18 19  1  0  0  0  0
 18 27  1  0  0  0  0
 19 21  2  0  0  0  0
 20 19  1  0  0  0  0
 21 22  1  0  0  0  0
 21 23  1  0  0  0  0
 23 24  1  0  0  0  0
 25 23  2  0  0  0  0
 25 26  1  0  0  0  0
 27 25  1  0  0  0  0
 28 30  1  0  0  0  0
 28 29  1  0  0  0  0
 31 28  1  0  0  0  0
 32 31  2  0  0  0  0
 32 33  1  0  0  0  0
 34 32  1  0  0  0  0
 35 34  1  0  0  0  0
 36 34  2  0  0  0  0
 36 37  1  0  0  0  0
 37 39  2  0  0  0  0
 38 37  1  0  0  0  0
 39 31  1  0  0  0  0
 39 40  1  0  0  0  0
 41 36  1  0  0  0  0
 42 41  2  0  0  0  0
 43 41  1  0  0  0  0
 44 43  1  0  0  0  0
 44 47  1  0  0  0  0
 45 44  1  0  0  0  0
 46 44  1  0  0  0  0
M  END
