14,15
 OpenBabel05122313053D

 52 54  0  0  1  0  0  0  0  0999 V2000
   -0.7600    4.2537    0.1024 C   0  0  0  0  0  0  0  0  0  0  0  0
   -0.9799    4.3124    1.1922 H   0  0  0  0  0  0  0  0  0  0  0  0
   -1.2158    5.1562   -0.3558 H   0  0  0  0  0  0  0  0  0  0  0  0
    0.7602    4.2537   -0.1026 C   0  0  0  0  0  0  0  0  0  0  0  0
    0.9801    4.3124   -1.1924 H   0  0  0  0  0  0  0  0  0  0  0  0
    1.2161    5.1561    0.3556 H   0  0  0  0  0  0  0  0  0  0  0  0
    0.7639    1.7169   -0.1124 C   0  0  2  0  0  0  0  0  0  0  0  0
    0.8966    1.7297   -1.2197 H   0  0  0  0  0  0  0  0  0  0  0  0
   -0.7639    1.7170    0.1123 C   0  0  1  0  0  0  0  0  0  0  0  0
   -0.8966    1.7298    1.2196 H   0  0  0  0  0  0  0  0  0  0  0  0
   -1.4000    2.9854   -0.4738 C   0  0  0  0  0  0  0  0  0  0  0  0
   -1.2720    2.9572   -1.5784 H   0  0  0  0  0  0  0  0  0  0  0  0
   -2.4940    2.9713   -0.2856 H   0  0  0  0  0  0  0  0  0  0  0  0
   -1.2880    0.4928   -0.4823 N   0  0  0  0  0  2  0  0  0  0  0  0
    1.2880    0.4928    0.4822 N   0  0  0  0  0  2  0  0  0  0  0  0
   -2.5493    0.1267   -0.3993 C   0  0  0  0  0  3  0  0  0  0  0  0
    2.5493    0.1266    0.3993 C   0  0  0  0  0  3  0  0  0  0  0  0
    3.0777   -0.8246    1.2396 N   0  0  0  0  0  0  0  0  0  0  0  0
    3.5318    0.5461   -0.4811 N   0  0  0  0  0  0  0  0  0  0  0  0
   -3.0777   -0.8247   -1.2394 N   0  0  0  0  0  0  0  0  0  0  0  0
   -3.5319    0.5462    0.4810 N   0  0  0  0  0  0  0  0  0  0  0  0
    4.7751   -0.1847   -0.1886 C   0  0  0  0  0  0  0  0  0  0  0  0
    5.4849    0.4587    0.3787 H   0  0  0  0  0  0  0  0  0  0  0  0
    5.2694   -0.5045   -1.1253 H   0  0  0  0  0  0  0  0  0  0  0  0
    4.2952   -1.3724    0.6581 C   0  0  0  0  0  0  0  0  0  0  0  0
    4.0536   -2.2631    0.0310 H   0  0  0  0  0  0  0  0  0  0  0  0
    5.0214   -1.6632    1.4432 H   0  0  0  0  0  0  0  0  0  0  0  0
    2.2772   -1.5894    2.1661 C   0  0  0  0  0  0  0  0  0  0  0  0
    1.8487   -2.4993    1.6877 H   0  0  0  0  0  0  0  0  0  0  0  0
    1.4338   -0.9667    2.5179 H   0  0  0  0  0  0  0  0  0  0  0  0
    2.8950   -1.8953    3.0347 H   0  0  0  0  0  0  0  0  0  0  0  0
    3.2106    0.9377   -1.8485 C   0  0  0  0  0  0  0  0  0  0  0  0
    4.1314    0.8642   -2.4560 H   0  0  0  0  0  0  0  0  0  0  0  0
    2.8595    1.9886   -1.9118 H   0  0  0  0  0  0  0  0  0  0  0  0
    2.4450    0.2584   -2.2817 H   0  0  0  0  0  0  0  0  0  0  0  0
   -3.2107    0.9382    1.8484 C   0  0  0  0  0  0  0  0  0  0  0  0
   -4.1315    0.8647    2.4558 H   0  0  0  0  0  0  0  0  0  0  0  0
   -2.8598    1.9891    1.9115 H   0  0  0  0  0  0  0  0  0  0  0  0
   -2.4450    0.2590    2.2817 H   0  0  0  0  0  0  0  0  0  0  0  0
   -4.7751   -0.1847    0.1886 C   0  0  0  0  0  0  0  0  0  0  0  0
   -5.4849    0.4586   -0.3788 H   0  0  0  0  0  0  0  0  0  0  0  0
   -5.2694   -0.5043    1.1253 H   0  0  0  0  0  0  0  0  0  0  0  0
   -4.2951   -1.3724   -0.6579 C   0  0  0  0  0  0  0  0  0  0  0  0
   -4.0535   -2.2631   -0.0306 H   0  0  0  0  0  0  0  0  0  0  0  0
   -5.0212   -1.6635   -1.4430 H   0  0  0  0  0  0  0  0  0  0  0  0
   -2.2769   -1.5896   -2.1658 C   0  0  0  0  0  0  0  0  0  0  0  0
   -1.8484   -2.4993   -1.6871 H   0  0  0  0  0  0  0  0  0  0  0  0
   -1.4337   -0.9669   -2.5177 H   0  0  0  0  0  0  0  0  0  0  0  0
   -2.8948   -1.8958   -3.0343 H   0  0  0  0  0  0  0  0  0  0  0  0
    1.4001    2.9854    0.4737 C   0  0  0  0  0  0  0  0  0  0  0  0
    1.2721    2.9571    1.5783 H   0  0  0  0  0  0  0  0  0  0  0  0
    2.4941    2.9712    0.2855 H   0  0  0  0  0  0  0  0  0  0  0  0
  1  2  1  0  0  0  0
  3  1  1  0  0  0  0
  4  1  1  0  0  0  0
  4  6  1  0  0  0  0
  4 50  1  0  0  0  0
  5  4  1  0  0  0  0
  7  8  1  6  0  0  0
  7  9  1  0  0  0  0
  7 50  1  0  0  0  0
  7 15  1  0  0  0  0
  9 10  1  1  0  0  0
 11 13  1  0  0  0  0
 11  1  1  0  0  0  0
 11  9  1  0  0  0  0
 12 11  1  0  0  0  0
 14 16  1  0  0  0  0
 14  9  1  0  0  0  0
 16 21  1  0  0  0  0
 17 15  1  0  0  0  0
 17 18  1  0  0  0  0
 18 28  1  0  0  0  0
 19 22  1  0  0  0  0
 19 17  1  0  0  0  0
 20 43  1  0  0  0  0
 20 16  1  0  0  0  0
 21 36  1  0  0  0  0
 22 23  1  0  0  0  0
 22 25  1  0  0  0  0
 24 22  1  0  0  0  0
 25 18  1  0  0  0  0
 25 27  1  0  0  0  0
 26 25  1  0  0  0  0
 28 30  1  0  0  0  0
 28 31  1  0  0  0  0
 29 28  1  0  0  0  0
 32 19  1  0  0  0  0
 33 32  1  0  0  0  0
 34 32  1  0  0  0  0
 35 32  1  0  0  0  0
 36 38  1  0  0  0  0
 36 39  1  0  0  0  0
 36 37  1  0  0  0  0
 40 21  1  0  0  0  0
 40 42  1  0  0  0  0
 41 40  1  0  0  0  0
 43 44  1  0  0  0  0
 43 40  1  0  0  0  0
 45 43  1  0  0  0  0
 46 47  1  0  0  0  0
 46 20  1  0  0  0  0
 48 46  1  0  0  0  0
 49 46  1  0  0  0  0
 50 51  1  0  0  0  0
 52 50  1  0  0  0  0
M  END
