1,51
 OpenBabel05122313053D

 51 51  0  0  1  0  0  0  0  0999 V2000
    1.2772   -0.4371    0.2334 N   0  0  0  0  0  2  0  0  0  0  0  0
   -0.7042   -1.5220    1.0908 C   0  0  1  0  0  0  0  0  0  0  0  0
   -1.3337   -2.4302    0.9798 H   0  0  0  0  0  0  0  0  0  0  0  0
    0.6218   -1.7331    0.2978 C   0  0  2  0  0  0  0  0  0  0  0  0
    0.4246   -2.2004   -0.6922 H   0  0  0  0  0  0  0  0  0  0  0  0
   -2.6422   -0.3240    0.2429 C   0  0  0  0  0  3  0  0  0  0  0  0
    2.5223   -0.2631   -0.1782 C   0  0  0  0  0  3  0  0  0  0  0  0
   -3.2527   -1.4191   -0.3406 N   0  0  0  0  0  0  0  0  0  0  0  0
   -3.3855    0.8296    0.3150 N   0  0  0  0  0  0  0  0  0  0  0  0
   -4.6654   -1.6955   -0.1623 C   0  0  0  0  0  0  0  0  0  0  0  0
   -5.0724   -1.0505    0.6377 H   0  0  0  0  0  0  0  0  0  0  0  0
   -4.8113   -2.7585    0.1318 H   0  0  0  0  0  0  0  0  0  0  0  0
   -5.2569   -1.5190   -1.0904 H   0  0  0  0  0  0  0  0  0  0  0  0
   -2.5391   -2.2454   -1.3017 C   0  0  0  0  0  0  0  0  0  0  0  0
   -3.1695   -2.3766   -2.2084 H   0  0  0  0  0  0  0  0  0  0  0  0
   -2.2947   -3.2585   -0.9089 H   0  0  0  0  0  0  0  0  0  0  0  0
   -1.6197   -1.7174   -1.6209 H   0  0  0  0  0  0  0  0  0  0  0  0
   -4.1387    1.2940   -0.8429 C   0  0  0  0  0  0  0  0  0  0  0  0
   -3.6336    2.1784   -1.2884 H   0  0  0  0  0  0  0  0  0  0  0  0
   -5.1783    1.5728   -0.5668 H   0  0  0  0  0  0  0  0  0  0  0  0
   -4.1612    0.5105   -1.6196 H   0  0  0  0  0  0  0  0  0  0  0  0
   -3.0353    1.8594    1.2843 C   0  0  0  0  0  0  0  0  0  0  0  0
   -2.2819    2.5806    0.8942 H   0  0  0  0  0  0  0  0  0  0  0  0
   -2.6014    1.3856    2.1833 H   0  0  0  0  0  0  0  0  0  0  0  0
   -3.9541    2.4157    1.5639 H   0  0  0  0  0  0  0  0  0  0  0  0
   -0.1515   -1.4450    2.5328 C   0  0  0  0  0  0  0  0  0  0  0  0
    0.0825   -0.3825    2.7704 H   0  0  0  0  0  0  0  0  0  0  0  0
   -0.8807   -1.8235    3.2818 H   0  0  0  0  0  0  0  0  0  0  0  0
    1.3436   -2.6888    1.2518 C   0  0  0  0  0  0  0  0  0  0  0  0
    0.9824   -3.7352    1.0914 H   0  0  0  0  0  0  0  0  0  0  0  0
    2.4451   -2.6829    1.1133 H   0  0  0  0  0  0  0  0  0  0  0  0
    1.0380   -2.2356    2.5694 O   0  0  0  0  0  0  0  0  0  0  0  0
    3.1198   -1.0055   -1.1733 N   0  0  0  0  0  0  0  0  0  0  0  0
    3.2771    0.7186    0.4143 N   0  0  0  0  0  0  0  0  0  0  0  0
    2.3345   -1.5076   -2.2895 C   0  0  0  0  0  0  0  0  0  0  0  0
    1.3705   -0.9613   -2.3483 H   0  0  0  0  0  0  0  0  0  0  0  0
    2.1437   -2.6029   -2.2158 H   0  0  0  0  0  0  0  0  0  0  0  0
    2.8871   -1.3245   -3.2356 H   0  0  0  0  0  0  0  0  0  0  0  0
    4.5409   -1.3007   -1.1809 C   0  0  0  0  0  0  0  0  0  0  0  0
    5.0803   -0.7746   -2.0009 H   0  0  0  0  0  0  0  0  0  0  0  0
    4.6999   -2.3928   -1.3193 H   0  0  0  0  0  0  0  0  0  0  0  0
    4.9867   -0.9975   -0.2161 H   0  0  0  0  0  0  0  0  0  0  0  0
    4.0116    1.6936   -0.3802 C   0  0  0  0  0  0  0  0  0  0  0  0
    3.4835    2.6719   -0.3412 H   0  0  0  0  0  0  0  0  0  0  0  0
    4.0521    1.3702   -1.4359 H   0  0  0  0  0  0  0  0  0  0  0  0
    5.0486    1.8289   -0.0045 H   0  0  0  0  0  0  0  0  0  0  0  0
    2.9738    1.1152    1.7875 C   0  0  0  0  0  0  0  0  0  0  0  0
    3.9143    1.4487    2.2741 H   0  0  0  0  0  0  0  0  0  0  0  0
    2.5693    0.2416    2.3313 H   0  0  0  0  0  0  0  0  0  0  0  0
    2.2273    1.9385    1.8210 H   0  0  0  0  0  0  0  0  0  0  0  0
   -1.4131   -0.3191    0.7237 N   0  0  0  0  0  2  0  0  0  0  0  0
  1  4  1  0  0  0  0
  2  3  1  6  0  0  0
  2 26  1  0  0  0  0
  4  5  1  6  0  0  0
  4  2  1  0  0  0  0
  4 29  1  0  0  0  0
  6  9  1  0  0  0  0
  6 51  1  0  0  0  0
  7  1  1  0  0  0  0
  7 34  1  0  0  0  0
  8 10  1  0  0  0  0
  8  6  1  0  0  0  0
  9 22  1  0  0  0  0
 10 12  1  0  0  0  0
 10 11  1  0  0  0  0
 13 10  1  0  0  0  0
 14 16  1  0  0  0  0
 14  8  1  0  0  0  0
 15 14  1  0  0  0  0
 17 14  1  0  0  0  0
 18 20  1  0  0  0  0
 18  9  1  0  0  0  0
 19 18  1  0  0  0  0
 21 18  1  0  0  0  0
 22 25  1  0  0  0  0
 22 24  1  0  0  0  0
 23 22  1  0  0  0  0
 26 32  1  0  0  0  0
 26 27  1  0  0  0  0
 26 28  1  0  0  0  0
 29 32  1  0  0  0  0
 30 29  1  0  0  0  0
 31 29  1  0  0  0  0
 33  7  1  0  0  0  0
 34 47  1  0  0  0  0
 35 37  1  0  0  0  0
 35 33  1  0  0  0  0
 36 35  1  0  0  0  0
 38 35  1  0  0  0  0
 39 33  1  0  0  0  0
 39 42  1  0  0  0  0
 40 39  1  0  0  0  0
 41 39  1  0  0  0  0
 43 44  1  0  0  0  0
 43 46  1  0  0  0  0
 43 34  1  0  0  0  0
 45 43  1  0  0  0  0
 47 50  1  0  0  0  0
 47 48  1  0  0  0  0
 47 49  1  0  0  0  0
 51  2  1  0  0  0  0
M  END
