3,4
 OpenBabel05122313053D

 79 84  0  0  0  0  0  0  0  0999 V2000
    1.6129    0.1147   -0.0804 P   0  0  0  0  0  0  0  0  0  0  0  0
   -1.7432    0.0266    0.0060 P   0  0  0  0  0  0  0  0  0  0  0  0
    1.2264   -2.7156   -1.0018 N   0  0  0  0  0  2  0  0  0  0  0  0
   -1.1257   -2.8156    0.0193 N   0  0  0  0  0  0  0  0  0  0  0  0
   -2.1510   -2.7347    0.0738 H   0  0  0  0  0  0  0  0  0  0  0  0
   -0.6815   -4.1066   -0.5473 C   0  0  0  0  0  0  0  0  0  0  0  0
   -1.5416   -4.5990   -1.0390 H   0  0  0  0  0  0  0  0  0  0  0  0
   -0.3230   -4.7715    0.2664 H   0  0  0  0  0  0  0  0  0  0  0  0
    0.4355   -3.8196   -1.5576 C   0  0  0  0  0  0  0  0  0  0  0  0
    1.0563   -4.7231   -1.7400 H   0  0  0  0  0  0  0  0  0  0  0  0
   -0.0007   -3.4936   -2.5231 H   0  0  0  0  0  0  0  0  0  0  0  0
    2.4908   -2.9373   -0.7907 C   0  0  0  0  0  3  0  0  0  0  0  0
    2.9004   -3.9115   -1.1254 H   0  0  0  0  0  0  0  0  0  0  0  0
    3.4361   -2.0894   -0.0829 C   0  0  0  0  0  0  0  0  0  0  0  0
    4.7011   -2.6714    0.1909 C   0  0  0  0  0  0  0  0  0  0  0  0
    4.9150   -3.6820   -0.1910 H   0  0  0  0  0  0  0  0  0  0  0  0
    5.6621   -1.9963    0.9462 C   0  0  0  0  0  0  0  0  0  0  0  0
    6.6348   -2.4672    1.1501 H   0  0  0  0  0  0  0  0  0  0  0  0
    5.3715   -0.7166    1.4458 C   0  0  0  0  0  0  0  0  0  0  0  0
    6.1169   -0.1724    2.0448 H   0  0  0  0  0  0  0  0  0  0  0  0
    4.1324   -0.1192    1.1695 C   0  0  0  0  0  0  0  0  0  0  0  0
    3.9250    0.8925    1.5469 H   0  0  0  0  0  0  0  0  0  0  0  0
    3.1571   -0.7803    0.3993 C   0  0  0  0  0  0  0  0  0  0  0  0
   -0.4146   -2.2263    1.1428 C   0  0  0  0  0  3  0  0  0  0  0  0
    0.3518   -2.9044    1.5612 H   0  0  0  0  0  0  0  0  0  0  0  0
   -1.2548   -1.5397    2.1647 C   0  0  0  0  0  0  0  0  0  0  0  0
   -1.3061   -1.9603    3.5081 C   0  0  0  0  0  0  0  0  0  0  0  0
   -0.7261   -2.8413    3.8242 H   0  0  0  0  0  0  0  0  0  0  0  0
   -2.0818   -1.2563    4.4430 C   0  0  0  0  0  0  0  0  0  0  0  0
   -2.1029   -1.5851    5.4928 H   0  0  0  0  0  0  0  0  0  0  0  0
   -2.8358   -0.1410    4.0431 C   0  0  0  0  0  0  0  0  0  0  0  0
   -3.4420    0.4086    4.7783 H   0  0  0  0  0  0  0  0  0  0  0  0
   -2.8045    0.2845    2.7049 C   0  0  0  0  0  0  0  0  0  0  0  0
   -3.3752    1.1745    2.4015 H   0  0  0  0  0  0  0  0  0  0  0  0
   -2.0009   -0.3970    1.7772 C   0  0  0  0  0  0  0  0  0  0  0  0
    2.2133    1.1657   -1.4727 C   0  0  0  0  0  0  0  0  0  0  0  0
    3.5045    1.0362   -2.0222 C   0  0  0  0  0  0  0  0  0  0  0  0
    4.2195    0.3148   -1.6019 H   0  0  0  0  0  0  0  0  0  0  0  0
    3.8892    1.8317   -3.1135 C   0  0  0  0  0  0  0  0  0  0  0  0
    4.8985    1.7195   -3.5371 H   0  0  0  0  0  0  0  0  0  0  0  0
    1.6487    3.5136    2.3284 C   0  0  0  0  0  0  0  0  0  0  0  0
    1.8880    4.5830    2.2284 H   0  0  0  0  0  0  0  0  0  0  0  0
    2.9968    2.7661   -3.6593 C   0  0  0  0  0  0  0  0  0  0  0  0
    3.3036    3.3895   -4.5124 H   0  0  0  0  0  0  0  0  0  0  0  0
    1.7090    2.8989   -3.1148 C   0  0  0  0  0  0  0  0  0  0  0  0
    0.9991    3.6263   -3.5364 H   0  0  0  0  0  0  0  0  0  0  0  0
    1.3152    2.0985   -2.0353 C   0  0  0  0  0  0  0  0  0  0  0  0
    0.3002    2.2049   -1.6280 H   0  0  0  0  0  0  0  0  0  0  0  0
    1.4633    1.3004    1.3263 C   0  0  0  0  0  0  0  0  0  0  0  0
    1.0637    0.7833    2.5766 C   0  0  0  0  0  0  0  0  0  0  0  0
    0.8516   -0.2887    2.6830 H   0  0  0  0  0  0  0  0  0  0  0  0
    0.9399    1.6280    3.6877 C   0  0  0  0  0  0  0  0  0  0  0  0
    0.6188    1.2118    4.6543 H   0  0  0  0  0  0  0  0  0  0  0  0
    1.2263    2.9988    3.5638 C   0  0  0  0  0  0  0  0  0  0  0  0
    1.1294    3.6638    4.4352 H   0  0  0  0  0  0  0  0  0  0  0  0
    1.7657    2.6713    1.2108 C   0  0  0  0  0  0  0  0  0  0  0  0
    2.0901    3.0862    0.2462 H   0  0  0  0  0  0  0  0  0  0  0  0
   -3.3449   -0.4749   -0.7926 C   0  0  0  0  0  0  0  0  0  0  0  0
   -3.3885   -1.4486   -1.8104 C   0  0  0  0  0  0  0  0  0  0  0  0
   -2.4545   -1.9032   -2.1702 H   0  0  0  0  0  0  0  0  0  0  0  0
   -4.6146   -1.8214   -2.3857 C   0  0  0  0  0  0  0  0  0  0  0  0
   -4.6337   -2.5745   -3.1878 H   0  0  0  0  0  0  0  0  0  0  0  0
   -5.8068   -1.2272   -1.9487 C   0  0  0  0  0  0  0  0  0  0  0  0
   -6.7670   -1.5182   -2.4001 H   0  0  0  0  0  0  0  0  0  0  0  0
   -5.7707   -0.2506   -0.9389 C   0  0  0  0  0  0  0  0  0  0  0  0
   -6.7022    0.2258   -0.5981 H   0  0  0  0  0  0  0  0  0  0  0  0
   -4.5491    0.1262   -0.3663 C   0  0  0  0  0  0  0  0  0  0  0  0
   -4.5341    0.9057    0.4096 H   0  0  0  0  0  0  0  0  0  0  0  0
   -1.8199    1.8462   -0.1723 C   0  0  0  0  0  0  0  0  0  0  0  0
   -1.4553    2.7264    0.8650 C   0  0  0  0  0  0  0  0  0  0  0  0
   -1.1483    2.3358    1.8452 H   0  0  0  0  0  0  0  0  0  0  0  0
   -1.4752    4.1124    0.6431 C   0  0  0  0  0  0  0  0  0  0  0  0
   -1.1913    4.7924    1.4599 H   0  0  0  0  0  0  0  0  0  0  0  0
   -1.8445    4.6263   -0.6087 C   0  0  0  0  0  0  0  0  0  0  0  0
   -1.8568    5.7136   -0.7765 H   0  0  0  0  0  0  0  0  0  0  0  0
   -2.2040    3.7503   -1.6475 C   0  0  0  0  0  0  0  0  0  0  0  0
   -2.4986    4.1473   -2.6304 H   0  0  0  0  0  0  0  0  0  0  0  0
   -2.1959    2.3660   -1.4327 C   0  0  0  0  0  0  0  0  0  0  0  0
   -2.4802    1.6837   -2.2483 H   0  0  0  0  0  0  0  0  0  0  0  0
  1 23  1  0  0  0  0
  1 49  1  0  0  0  0
  2 35  1  0  0  0  0
  3 12  1  0  0  0  0
  4  5  1  0  0  0  0
  4 24  1  0  0  0  0
  6  4  1  0  0  0  0
  6  8  1  0  0  0  0
  7  6  1  0  0  0  0
  9  3  1  0  0  0  0
  9  6  1  0  0  0  0
 10  9  1  0  0  0  0
 11  9  1  0  0  0  0
 12 14  1  0  0  0  0
 13 12  1  0  0  0  0
 14 15  2  0  0  0  0
 14 23  1  0  0  0  0
 15 17  1  0  0  0  0
 16 15  1  0  0  0  0
 17 18  1  0  0  0  0
 17 19  2  0  0  0  0
 19 20  1  0  0  0  0
 21 19  1  0  0  0  0
 21 22  1  0  0  0  0
 23 21  2  0  0  0  0
 24 25  1  0  0  0  0
 24 26  1  0  0  0  0
 26 27  1  0  0  0  0
 27 28  1  0  0  0  0
 27 29  2  0  0  0  0
 29 30  1  0  0  0  0
 31 29  1  0  0  0  0
 31 32  1  0  0  0  0
 33 31  2  0  0  0  0
 34 33  1  0  0  0  0
 35 26  2  0  0  0  0
 35 33  1  0  0  0  0
 36  1  1  0  0  0  0
 37 38  1  0  0  0  0
 37 36  1  0  0  0  0
 39 37  2  0  0  0  0
 40 39  1  0  0  0  0
 41 54  1  0  0  0  0
 42 41  1  0  0  0  0
 43 45  2  0  0  0  0
 43 39  1  0  0  0  0
 44 43  1  0  0  0  0
 45 47  1  0  0  0  0
 46 45  1  0  0  0  0
 47 48  1  0  0  0  0
 47 36  2  0  0  0  0
 49 50  2  0  0  0  0
 50 51  1  0  0  0  0
 50 52  1  0  0  0  0
 52 53  1  0  0  0  0
 54 52  2  0  0  0  0
 54 55  1  0  0  0  0
 56 49  1  0  0  0  0
 56 41  2  0  0  0  0
 57 56  1  0  0  0  0
 58 67  1  0  0  0  0
 58  2  1  0  0  0  0
 59 58  2  0  0  0  0
 60 59  1  0  0  0  0
 61 63  2  0  0  0  0
 61 59  1  0  0  0  0
 62 61  1  0  0  0  0
 63 65  1  0  0  0  0
 64 63  1  0  0  0  0
 65 66  1  0  0  0  0
 65 67  2  0  0  0  0
 67 68  1  0  0  0  0
 69  2  1  0  0  0  0
 69 70  1  0  0  0  0
 70 71  1  0  0  0  0
 72 70  2  0  0  0  0
 72 73  1  0  0  0  0
 74 72  1  0  0  0  0
 75 74  1  0  0  0  0
 76 78  1  0  0  0  0
 76 74  2  0  0  0  0
 77 76  1  0  0  0  0
 78 69  2  0  0  0  0
 79 78  1  0  0  0  0
M  END
