1,2
 OpenBabel05122313053D

 57 60  0  0  0  0  0  0  0  0999 V2000
    1.3417    2.2809    0.5973 N   0  0  0  0  0  0  0  0  0  0  0  0
   -1.6089    2.3185    0.2754 N   0  0  0  0  0  0  0  0  0  0  0  0
    4.1453   -2.7948    3.4942 F   0  0  0  0  0  0  0  0  0  0  0  0
    2.0399   -2.7774    2.9237 F   0  0  0  0  0  0  0  0  0  0  0  0
    2.8675   -1.1159    4.0668 F   0  0  0  0  0  0  0  0  0  0  0  0
    6.2739   -2.8914   -0.8722 F   0  0  0  0  0  0  0  0  0  0  0  0
    4.7218   -2.5100   -2.3588 F   0  0  0  0  0  0  0  0  0  0  0  0
    6.2903   -1.0345   -2.0266 F   0  0  0  0  0  0  0  0  0  0  0  0
   -6.2913   -3.2310    0.4650 F   0  0  0  0  0  0  0  0  0  0  0  0
   -6.3486   -1.7143    2.0389 F   0  0  0  0  0  0  0  0  0  0  0  0
   -4.7743   -3.2226    2.0316 F   0  0  0  0  0  0  0  0  0  0  0  0
   -1.4628   -2.0173   -2.8057 F   0  0  0  0  0  0  0  0  0  0  0  0
   -2.7510   -0.5842   -3.8210 F   0  0  0  0  0  0  0  0  0  0  0  0
   -3.4582   -2.6198   -3.4515 F   0  0  0  0  0  0  0  0  0  0  0  0
   -0.1388    4.3456    0.6798 C   0  0  0  0  0  0  0  0  0  0  0  0
   -0.5693    5.4458   -0.3199 C   0  0  0  0  0  0  0  0  0  0  0  0
   -0.9036    5.0031   -1.2788 H   0  0  0  0  0  0  0  0  0  0  0  0
    0.2639    6.1467   -0.5292 H   0  0  0  0  0  0  0  0  0  0  0  0
   -1.4099    6.0301    0.1015 H   0  0  0  0  0  0  0  0  0  0  0  0
    0.3797    5.0097    1.9799 C   0  0  0  0  0  0  0  0  0  0  0  0
    1.2591    5.6458    1.7580 H   0  0  0  0  0  0  0  0  0  0  0  0
    0.6812    4.2388    2.7147 H   0  0  0  0  0  0  0  0  0  0  0  0
   -0.4006    5.6496    2.4390 H   0  0  0  0  0  0  0  0  0  0  0  0
    1.0032    3.5281    0.0877 C   0  0  0  0  0  3  0  0  0  0  0  0
    1.9770    3.9292   -0.8522 C   0  0  0  0  0  0  0  0  0  0  0  0
    2.0108    4.8871   -1.3835 H   0  0  0  0  0  0  0  0  0  0  0  0
    2.9225    2.8847   -0.9498 C   0  0  0  0  0  0  0  0  0  0  0  0
    3.8344    2.8786   -1.5591 H   0  0  0  0  0  0  0  0  0  0  0  0
    3.1475   -1.9884    3.0726 C   0  0  0  0  0  0  0  0  0  0  0  0
    2.5047    1.8718   -0.0615 C   0  0  0  0  0  0  0  0  0  0  0  0
    5.4871   -1.9268   -1.3986 C   0  0  0  0  0  0  0  0  0  0  0  0
   -1.3467    3.4797    0.9921 C   0  0  0  0  0  3  0  0  0  0  0  0
   -2.3851    3.6912    1.9057 C   0  0  0  0  0  0  0  0  0  0  0  0
   -2.4779    4.5379    2.5953 H   0  0  0  0  0  0  0  0  0  0  0  0
   -3.3113    2.6209    1.7537 C   0  0  0  0  0  0  0  0  0  0  0  0
   -4.2593    2.4945    2.2904 H   0  0  0  0  0  0  0  0  0  0  0  0
   -5.5240   -2.4211    1.2309 C   0  0  0  0  0  0  0  0  0  0  0  0
   -2.8170    1.7839    0.7467 C   0  0  0  0  0  0  0  0  0  0  0  0
   -2.7574   -1.5982   -2.9177 C   0  0  0  0  0  0  0  0  0  0  0  0
    3.1468    0.5944    0.2547 C   0  0  0  0  0  0  0  0  0  0  0  0
    2.8959   -0.0532    1.4875 C   0  0  0  0  0  0  0  0  0  0  0  0
    2.2355    0.4329    2.2178 H   0  0  0  0  0  0  0  0  0  0  0  0
    3.4879   -1.2872    1.7789 C   0  0  0  0  0  0  0  0  0  0  0  0
    4.3567   -1.9054    0.8621 C   0  0  0  0  0  0  0  0  0  0  0  0
    4.8275   -2.8688    1.0973 H   0  0  0  0  0  0  0  0  0  0  0  0
    4.6226   -1.2602   -0.3540 C   0  0  0  0  0  0  0  0  0  0  0  0
    4.0311   -0.0244   -0.6553 C   0  0  0  0  0  0  0  0  0  0  0  0
    4.2461    0.4563   -1.6202 H   0  0  0  0  0  0  0  0  0  0  0  0
   -3.3334    0.5378    0.1974 C   0  0  0  0  0  0  0  0  0  0  0  0
   -4.2302   -0.2888    0.9163 C   0  0  0  0  0  0  0  0  0  0  0  0
   -4.5858    0.0264    1.9074 H   0  0  0  0  0  0  0  0  0  0  0  0
   -4.6453   -1.5201    0.3938 C   0  0  0  0  0  0  0  0  0  0  0  0
   -4.1834   -1.9737   -0.8560 C   0  0  0  0  0  0  0  0  0  0  0  0
   -4.5147   -2.9396   -1.2583 H   0  0  0  0  0  0  0  0  0  0  0  0
   -3.3083   -1.1546   -1.5836 C   0  0  0  0  0  0  0  0  0  0  0  0
   -2.9049    0.0868   -1.0735 C   0  0  0  0  0  0  0  0  0  0  0  0
   -2.2754    0.7336   -1.7002 H   0  0  0  0  0  0  0  0  0  0  0  0
  2 38  2  0  0  0  0
  2 32  1  0  0  0  0
  4 29  1  0  0  0  0
  7 31  1  0  0  0  0
  8 31  1  0  0  0  0
  9 37  1  0  0  0  0
 13 39  1  0  0  0  0
 14 39  1  0  0  0  0
 15 32  1  0  0  0  0
 15 20  1  0  0  0  0
 16 19  1  0  0  0  0
 16 15  1  0  0  0  0
 17 16  1  0  0  0  0
 18 16  1  0  0  0  0
 20 23  1  0  0  0  0
 20 22  1  0  0  0  0
 21 20  1  0  0  0  0
 24  1  1  0  0  0  0
 24 15  1  0  0  0  0
 25 24  1  0  0  0  0
 26 25  1  0  0  0  0
 27 25  2  0  0  0  0
 27 30  1  0  0  0  0
 28 27  1  0  0  0  0
 29  3  1  0  0  0  0
 29  5  1  0  0  0  0
 30 40  1  0  0  0  0
 30  1  2  0  0  0  0
 31  6  1  0  0  0  0
 31 46  1  0  0  0  0
 32 33  1  0  0  0  0
 33 34  1  0  0  0  0
 35 33  2  0  0  0  0
 35 36  1  0  0  0  0
 37 11  1  0  0  0  0
 37 10  1  0  0  0  0
 38 35  1  0  0  0  0
 39 12  1  0  0  0  0
 39 55  1  0  0  0  0
 40 41  1  0  0  0  0
 41 43  2  0  0  0  0
 41 42  1  0  0  0  0
 43 29  1  0  0  0  0
 44 45  1  0  0  0  0
 44 43  1  0  0  0  0
 46 44  2  0  0  0  0
 47 46  1  0  0  0  0
 47 40  2  0  0  0  0
 48 47  1  0  0  0  0
 49 38  1  0  0  0  0
 49 50  1  0  0  0  0
 50 51  1  0  0  0  0
 52 50  2  0  0  0  0
 52 37  1  0  0  0  0
 53 52  1  0  0  0  0
 54 53  1  0  0  0  0
 55 56  1  0  0  0  0
 55 53  2  0  0  0  0
 56 49  2  0  0  0  0
 57 56  1  0  0  0  0
M  END
