3,4
 OpenBabel05122313053D

 33 34  0  0  0  0  0  0  0  0999 V2000
   -0.5445    3.1663   -0.2995 O   0  0  0  0  0  0  0  0  0  0  0  0
    3.6346   -1.2666    1.2030 O   0  0  0  0  0  0  0  0  0  0  0  0
   -3.1493    0.7542    0.1034 N   0  0  0  0  0  2  0  0  0  0  0  0
   -0.5321    0.8555   -0.4181 N   0  0  0  0  0  2  0  0  0  0  0  0
    3.1265    0.8431    0.4162 N   0  0  0  0  0  0  0  0  0  0  0  0
    3.5785    1.6558   -0.0207 H   0  0  0  0  0  0  0  0  0  0  0  0
    5.6719    1.2802   -0.2774 N   0  0  0  0  0  0  0  0  0  0  0  0
   -4.4643    0.5791    0.3412 C   0  0  0  0  0  3  0  0  0  0  0  0
   -4.8015   -0.4697    0.3948 H   0  0  0  0  0  0  0  0  0  0  0  0
   -5.3036    1.6870    0.5042 C   0  0  0  0  0  0  0  0  0  0  0  0
   -6.3734    1.5250    0.6966 H   0  0  0  0  0  0  0  0  0  0  0  0
   -4.7605    2.9799    0.4202 C   0  0  0  0  0  0  0  0  0  0  0  0
   -5.4054    3.8625    0.5468 H   0  0  0  0  0  0  0  0  0  0  0  0
   -3.3901    3.1323    0.1754 C   0  0  0  0  0  0  0  0  0  0  0  0
   -2.8842    4.1058    0.0987 H   0  0  0  0  0  0  0  0  0  0  0  0
   -2.6023    1.9877    0.0183 C   0  0  0  0  0  0  0  0  0  0  0  0
   -1.1199    2.0743   -0.2441 C   0  0  0  0  0  0  0  0  0  0  0  0
    0.8999    0.7945   -0.6543 C   0  0  0  0  0  0  0  0  0  0  0  0
    1.1778    1.6778   -1.2676 H   0  0  0  0  0  0  0  0  0  0  0  0
    1.1331   -0.1257   -1.2228 H   0  0  0  0  0  0  0  0  0  0  0  0
    1.7072    0.8007    0.6595 C   0  0  0  0  0  0  0  0  0  0  0  0
    1.3909    1.6726    1.2717 H   0  0  0  0  0  0  0  0  0  0  0  0
    1.5032   -0.1306    1.2258 H   0  0  0  0  0  0  0  0  0  0  0  0
    3.9656   -0.1989    0.6853 C   0  0  0  0  0  0  0  0  0  0  0  0
    5.4004    0.0866    0.2853 C   0  0  0  0  0  0  0  0  0  0  0  0
    6.3764   -0.8981    0.5147 C   0  0  0  0  0  0  0  0  0  0  0  0
    6.0648   -1.8445    0.9789 H   0  0  0  0  0  0  0  0  0  0  0  0
    7.6969   -0.6230    0.1387 C   0  0  0  0  0  0  0  0  0  0  0  0
    8.4925   -1.3666    0.2997 H   0  0  0  0  0  0  0  0  0  0  0  0
    7.9875    0.6184   -0.4479 C   0  0  0  0  0  0  0  0  0  0  0  0
    9.0103    0.8777   -0.7591 H   0  0  0  0  0  0  0  0  0  0  0  0
    6.9387    1.5353   -0.6339 C   0  0  0  0  0  0  0  0  0  0  0  0
    7.1328    2.5209   -1.0925 H   0  0  0  0  0  0  0  0  0  0  0  0
  1 17  2  0  0  0  0
  3  8  1  0  0  0  0
  4 17  1  0  0  0  0
  5 21  1  0  0  0  0
  5 24  1  0  0  0  0
  6  5  1  0  0  0  0
  7 25  1  0  0  0  0
  8  9  1  0  0  0  0
  8 10  1  0  0  0  0
 10 11  1  0  0  0  0
 12 10  2  0  0  0  0
 12 13  1  0  0  0  0
 14 12  1  0  0  0  0
 15 14  1  0  0  0  0
 16  3  1  0  0  0  0
 16 14  2  0  0  0  0
 17 16  1  0  0  0  0
 18  4  1  0  0  0  0
 18 21  1  0  0  0  0
 19 18  1  0  0  0  0
 20 18  1  0  0  0  0
 21 23  1  0  0  0  0
 21 22  1  0  0  0  0
 24  2  2  0  0  0  0
 25 26  2  0  0  0  0
 25 24  1  0  0  0  0
 26 27  1  0  0  0  0
 28 29  1  0  0  0  0
 28 26  1  0  0  0  0
 30 28  2  0  0  0  0
 31 30  1  0  0  0  0
 32 30  1  0  0  0  0
 32  7  2  0  0  0  0
 33 32  1  0  0  0  0
M  END
