1,4
 OpenBabel05122313053D

 37 39  0  0  1  0  0  0  0  0999 V2000
   -0.0971   -1.3412   -1.4462 N   0  0  0  0  0  2  0  0  0  0  0  0
    2.1022   -1.5575   -1.7622 N   0  0  0  0  0  0  0  0  0  0  0  0
    1.2837    0.6458   -1.2705 N   0  0  0  0  0  2  0  0  0  0  0  0
    0.2290    1.2223   -0.8301 N   0  0  0  0  0  2  0  0  0  0  0  0
    0.3212    2.5766   -0.5042 C   0  0  0  0  0  0  0  0  0  0  0  0
   -0.8686    3.1977   -0.0607 C   0  0  0  0  0  0  0  0  0  0  0  0
   -1.7943    2.5997   -0.0140 H   0  0  0  0  0  0  0  0  0  0  0  0
   -0.8493    4.5495    0.2944 C   0  0  0  0  0  0  0  0  0  0  0  0
   -1.7783    5.0300    0.6381 H   0  0  0  0  0  0  0  0  0  0  0  0
    0.3362    5.3094    0.2221 C   0  0  0  0  0  0  0  0  0  0  0  0
    1.5202    4.6684   -0.2255 C   0  0  0  0  0  0  0  0  0  0  0  0
    2.4550    5.2486   -0.2838 H   0  0  0  0  0  0  0  0  0  0  0  0
    1.5231    3.3244   -0.5850 C   0  0  0  0  0  0  0  0  0  0  0  0
    2.4392    2.8215   -0.9234 H   0  0  0  0  0  0  0  0  0  0  0  0
    1.0723   -0.6868   -1.5124 C   0  0  2  0  0  3  0  0  0  0  0  0
    0.1794   -2.6619   -1.6414 C   0  0  0  0  0  0  0  0  0  0  0  0
   -0.6130   -3.4163   -1.5993 H   0  0  0  0  0  0  0  0  0  0  0  0
    1.5500   -2.8177   -1.8364 C   0  0  0  0  0  0  0  0  0  0  0  0
    2.1666   -3.7067   -2.0012 H   0  0  0  0  0  0  0  0  0  0  0  0
    0.3632    6.7612    0.6160 C   0  0  0  0  0  0  0  0  0  0  0  0
   -0.6443    7.1350    0.8794 H   0  0  0  0  0  0  0  0  0  0  0  0
    0.7634    7.3927   -0.2046 H   0  0  0  0  0  0  0  0  0  0  0  0
    1.0268    6.9227    1.4920 H   0  0  0  0  0  0  0  0  0  0  0  0
    3.5143   -1.2190   -1.6221 C   0  0  0  0  0  0  0  0  0  0  0  0
    3.6019   -0.1453   -1.8863 H   0  0  0  0  0  0  0  0  0  0  0  0
    4.0942   -1.8010   -2.3652 H   0  0  0  0  0  0  0  0  0  0  0  0
    4.0344   -1.4618   -0.2140 C   0  0  0  0  0  0  0  0  0  0  0  0
    3.2052   -1.2951    0.9129 C   0  0  0  0  0  0  0  0  0  0  0  0
    2.1383   -1.0283    0.8240 H   0  0  0  0  0  0  0  0  0  0  0  0
    3.7270   -1.4790    2.2019 C   0  0  0  0  0  0  0  0  0  0  0  0
    3.0580   -1.3460    3.0655 H   0  0  0  0  0  0  0  0  0  0  0  0
    5.0746   -1.8269    2.3819 C   0  0  0  0  0  0  0  0  0  0  0  0
    5.4796   -1.9713    3.3951 H   0  0  0  0  0  0  0  0  0  0  0  0
    5.9032   -1.9975    1.2614 C   0  0  0  0  0  0  0  0  0  0  0  0
    6.9596   -2.2783    1.3911 H   0  0  0  0  0  0  0  0  0  0  0  0
    5.3836   -1.8198   -0.0296 C   0  0  0  0  0  0  0  0  0  0  0  0
    6.0362   -1.9615   -0.9065 H   0  0  0  0  0  0  0  0  0  0  0  0
  2 24  1  0  0  0  0
  2 15  1  0  0  0  0
  3  4  1  0  0  0  0
  4  5  1  0  0  0  0
  5  6  1  0  0  0  0
  6  7  1  0  0  0  0
  6  8  2  0  0  0  0
  8  9  1  0  0  0  0
 10  8  1  0  0  0  0
 10 20  1  0  0  0  0
 11 10  2  0  0  0  0
 12 11  1  0  0  0  0
 13  5  2  0  0  0  0
 13 11  1  0  0  0  0
 14 13  1  0  0  0  0
 15  1  1  0  0  0  0
 15  3  1  1  0  0  0
 16 17  1  0  0  0  0
 16  1  1  0  0  0  0
 18  2  1  0  0  0  0
 18 16  2  0  0  0  0
 19 18  1  0  0  0  0
 20 21  1  0  0  0  0
 20 23  1  0  0  0  0
 22 20  1  0  0  0  0
 24 27  1  0  0  0  0
 25 24  1  0  0  0  0
 26 24  1  0  0  0  0
 27 36  2  0  0  0  0
 27 28  1  0  0  0  0
 28 30  2  0  0  0  0
 29 28  1  0  0  0  0
 30 32  1  0  0  0  0
 30 31  1  0  0  0  0
 32 33  1  0  0  0  0
 34 35  1  0  0  0  0
 34 32  2  0  0  0  0
 36 34  1  0  0  0  0
 37 36  1  0  0  0  0
M  END
