3,4
 OpenBabel05122313053D

 37 39  0  0  1  0  0  0  0  0999 V2000
   -4.3774    0.4544    1.4944 O   0  0  0  0  0  0  0  0  0  0  0  0
   -3.8639   -1.4805    0.6247 O   0  0  0  0  0  0  0  0  0  0  0  0
    0.8341    2.0351   -0.5370 N   0  0  0  0  0  2  0  0  0  0  0  0
   -1.2804    0.3225   -1.3658 N   0  0  0  0  0  2  0  0  0  0  0  0
   -1.4500    2.1747    0.1512 N   0  0  0  0  0  0  0  0  0  0  0  0
   -3.6015   -0.4926    1.3090 N   0  0  0  0  0  0  0  0  0  0  0  0
   -0.2013    2.7794   -0.0591 C   0  0  2  0  0  3  0  0  0  0  0  0
   -0.0373    4.1521    0.2167 C   0  0  0  0  0  0  0  0  0  0  0  0
   -0.8963    4.7191    0.6009 H   0  0  0  0  0  0  0  0  0  0  0  0
    1.1892    4.7684   -0.0416 C   0  0  0  0  0  0  0  0  0  0  0  0
    1.3252    5.8407    0.1627 H   0  0  0  0  0  0  0  0  0  0  0  0
    2.2240    4.0044   -0.6052 C   0  0  0  0  0  0  0  0  0  0  0  0
    3.1978    4.4471   -0.8556 H   0  0  0  0  0  0  0  0  0  0  0  0
    2.0103    2.6467   -0.8404 C   0  0  0  0  0  0  0  0  0  0  0  0
    2.7960    1.9904   -1.2389 H   0  0  0  0  0  0  0  0  0  0  0  0
   -2.0203    1.3313   -0.8259 C   0  0  2  0  0  3  0  0  0  0  0  0
   -3.3601    1.5313   -1.2044 C   0  0  0  0  0  0  0  0  0  0  0  0
   -3.9247    2.3491   -0.7384 H   0  0  0  0  0  0  0  0  0  0  0  0
   -3.9470    0.6820   -2.1450 C   0  0  0  0  0  0  0  0  0  0  0  0
   -5.0003    0.8153   -2.4310 H   0  0  0  0  0  0  0  0  0  0  0  0
   -3.1604   -0.3214   -2.7291 C   0  0  0  0  0  0  0  0  0  0  0  0
   -3.5672   -1.0053   -3.4866 H   0  0  0  0  0  0  0  0  0  0  0  0
   -1.8331   -0.4639   -2.3263 C   0  0  0  0  0  0  0  0  0  0  0  0
   -1.1806   -1.2538   -2.7235 H   0  0  0  0  0  0  0  0  0  0  0  0
   -1.9951    2.0897    1.5300 C   0  0  0  0  0  0  0  0  0  0  0  0
   -3.0925    2.1988    1.5076 H   0  0  0  0  0  0  0  0  0  0  0  0
   -1.5705    2.9302    2.1089 H   0  0  0  0  0  0  0  0  0  0  0  0
   -1.5812    0.7710    2.1578 C   0  0  0  0  0  0  0  0  0  0  0  0
   -2.2777   -0.4474    1.9639 C   0  0  0  0  0  0  0  0  0  0  0  0
   -1.7384   -1.6821    2.3526 C   0  0  0  0  0  0  0  0  0  0  0  0
   -2.3035   -2.5960    2.1288 H   0  0  0  0  0  0  0  0  0  0  0  0
   -0.5004   -1.7224    3.0028 C   0  0  0  0  0  0  0  0  0  0  0  0
   -0.0735   -2.6894    3.3031 H   0  0  0  0  0  0  0  0  0  0  0  0
    0.2036   -0.5324    3.2295 C   0  0  0  0  0  0  0  0  0  0  0  0
    1.1935   -0.5555    3.7062 H   0  0  0  0  0  0  0  0  0  0  0  0
   -0.3291    0.6894    2.7937 C   0  0  0  0  0  0  0  0  0  0  0  0
    0.2603    1.6107    2.9208 H   0  0  0  0  0  0  0  0  0  0  0  0
  2  6  2  0  0  0  0
  3  7  1  0  0  0  0
  4 16  1  0  0  0  0
  5 25  1  0  0  0  0
  6  1  2  0  0  0  0
  6 29  1  0  0  0  0
  7  5  1  6  0  0  0
  7  8  1  0  0  0  0
  8  9  1  0  0  0  0
 10 11  1  0  0  0  0
 10  8  2  0  0  0  0
 12 10  1  0  0  0  0
 13 12  1  0  0  0  0
 14 12  2  0  0  0  0
 14  3  1  0  0  0  0
 15 14  1  0  0  0  0
 16  5  1  1  0  0  0
 17 16  1  0  0  0  0
 17 18  1  0  0  0  0
 19 17  2  0  0  0  0
 20 19  1  0  0  0  0
 21 23  2  0  0  0  0
 21 19  1  0  0  0  0
 22 21  1  0  0  0  0
 23  4  1  0  0  0  0
 24 23  1  0  0  0  0
 25 27  1  0  0  0  0
 25 28  1  0  0  0  0
 26 25  1  0  0  0  0
 28 36  1  0  0  0  0
 29 28  2  0  0  0  0
 29 30  1  0  0  0  0
 30 32  2  0  0  0  0
 31 30  1  0  0  0  0
 32 34  1  0  0  0  0
 32 33  1  0  0  0  0
 34 35  1  0  0  0  0
 36 37  1  0  0  0  0
 36 34  2  0  0  0  0
M  END
