2,3
 OpenBabel05122313053D

 30 31  0  0  0  0  0  0  0  0999 V2000
    4.6084    1.0866    1.8229 F   0  0  0  0  0  0  0  0  0  0  0  0
    0.2697    0.8238   -0.2404 N   0  0  0  0  0  2  0  0  0  0  0  0
   -2.3147    0.7625    0.0190 N   0  0  0  0  0  2  0  0  0  0  0  0
    0.4517    3.2995   -0.4939 C   0  0  0  0  0  0  0  0  0  0  0  0
    1.5170    3.1098   -0.7148 H   0  0  0  0  0  0  0  0  0  0  0  0
    0.0157    3.8794   -1.3327 H   0  0  0  0  0  0  0  0  0  0  0  0
    0.3973    3.9423    0.4098 H   0  0  0  0  0  0  0  0  0  0  0  0
    5.9862    0.0383   -0.3891 C   0  0  0  0  0  0  0  0  0  0  0  0
    6.3321   -0.3552   -1.3633 H   0  0  0  0  0  0  0  0  0  0  0  0
    6.5353    0.9790   -0.1775 H   0  0  0  0  0  0  0  0  0  0  0  0
    6.2826   -0.6834    0.4002 H   0  0  0  0  0  0  0  0  0  0  0  0
    2.4778    1.0007    0.8119 C   0  0  0  0  0  0  0  0  0  0  0  0
    2.0284    1.3899    1.7357 H   0  0  0  0  0  0  0  0  0  0  0  0
    3.8557    0.7825    0.7450 C   0  0  0  0  0  0  0  0  0  0  0  0
    4.4989    0.2593   -0.3927 C   0  0  0  0  0  0  0  0  0  0  0  0
    3.6751   -0.0477   -1.4926 C   0  0  0  0  0  0  0  0  0  0  0  0
    4.1398   -0.4636   -2.3998 H   0  0  0  0  0  0  0  0  0  0  0  0
    2.2878    0.1460   -1.4613 C   0  0  0  0  0  0  0  0  0  0  0  0
    1.6579   -0.1250   -2.3196 H   0  0  0  0  0  0  0  0  0  0  0  0
    1.6860    0.6760   -0.3057 C   0  0  0  0  0  0  0  0  0  0  0  0
   -0.2956    2.0131   -0.2922 C   0  0  0  0  0  0  0  0  0  0  0  0
   -1.7506    2.0042   -0.1516 C   0  0  0  0  0  0  0  0  0  0  0  0
   -2.5412    3.1724   -0.1786 C   0  0  0  0  0  0  0  0  0  0  0  0
   -2.0610    4.1510   -0.3125 H   0  0  0  0  0  0  0  0  0  0  0  0
   -3.9263    3.0747   -0.0321 C   0  0  0  0  0  0  0  0  0  0  0  0
   -4.5561    3.9760   -0.0501 H   0  0  0  0  0  0  0  0  0  0  0  0
   -4.4946    1.7994    0.1388 C   0  0  0  0  0  0  0  0  0  0  0  0
   -5.5790    1.6661    0.2583 H   0  0  0  0  0  0  0  0  0  0  0  0
   -3.6587    0.6808    0.1580 C   0  0  0  0  0  0  0  0  0  0  0  0
   -4.0649   -0.3326    0.2907 H   0  0  0  0  0  0  0  0  0  0  0  0
  3 29  1  0  0  0  0
  4 21  1  0  0  0  0
  4  7  1  0  0  0  0
  5  4  1  0  0  0  0
  6  4  1  0  0  0  0
  8 10  1  0  0  0  0
  8 11  1  0  0  0  0
  9  8  1  0  0  0  0
 12 13  1  0  0  0  0
 14 12  1  0  0  0  0
 14  1  1  0  0  0  0
 15  8  1  0  0  0  0
 15 14  2  0  0  0  0
 16 18  2  0  0  0  0
 16 15  1  0  0  0  0
 17 16  1  0  0  0  0
 18 20  1  0  0  0  0
 19 18  1  0  0  0  0
 20  2  1  0  0  0  0
 20 12  2  0  0  0  0
 21  2  1  0  0  0  0
 21 22  2  0  0  0  0
 22  3  1  0  0  0  0
 23 22  1  0  0  0  0
 23 25  2  0  0  0  0
 24 23  1  0  0  0  0
 25 27  1  0  0  0  0
 26 25  1  0  0  0  0
 27 29  2  0  0  0  0
 27 28  1  0  0  0  0
 29 30  1  0  0  0  0
M  END
