1,6
 OpenBabel05122313053D

 25 26  0  0  0  0  0  0  0  0999 V2000
    2.7628   -1.4857   -0.7688 N   0  0  0  0  0  0  0  0  0  0  0  0
    3.4892   -0.4828    0.0353 C   0  0  0  0  0  0  0  0  0  0  0  0
    4.5467   -0.3535   -0.2946 H   0  0  0  0  0  0  0  0  0  0  0  0
    3.5150   -0.8441    1.0865 H   0  0  0  0  0  0  0  0  0  0  0  0
    2.7720    0.8241   -0.0799 C   0  0  0  0  0  0  0  0  0  0  0  0
    1.3956    0.7986   -0.2443 N   0  0  0  0  0  0  0  0  0  0  0  0
    1.0579    2.1450   -0.4096 C   0  0  0  0  0  0  0  0  0  0  0  0
   -0.1682    2.7979   -0.6494 C   0  0  0  0  0  0  0  0  0  0  0  0
   -1.1153    2.2469   -0.7294 H   0  0  0  0  0  0  0  0  0  0  0  0
   -0.1452    4.1947   -0.7686 C   0  0  0  0  0  0  0  0  0  0  0  0
   -1.0905    4.7281   -0.9496 H   0  0  0  0  0  0  0  0  0  0  0  0
    1.0579    4.9318   -0.6568 C   0  0  0  0  0  0  0  0  0  0  0  0
    1.0276    6.0276   -0.7552 H   0  0  0  0  0  0  0  0  0  0  0  0
    2.2810    4.2908   -0.4260 C   0  0  0  0  0  3  0  0  0  0  0  0
    3.2237    4.8513   -0.3424 H   0  0  0  0  0  0  0  0  0  0  0  0
    2.2830    2.8879   -0.3053 C   0  0  0  0  0  0  0  0  0  0  0  0
    3.3452    2.0169   -0.1057 N   0  0  0  0  0  0  0  0  0  0  0  0
    2.8603   -1.1401   -2.1993 C   0  0  0  0  0  0  0  0  0  0  0  0
    3.9279   -1.1252   -2.5238 H   0  0  0  0  0  0  0  0  0  0  0  0
    2.4191   -0.1463   -2.3870 H   0  0  0  0  0  0  0  0  0  0  0  0
    2.3195   -1.8918   -2.8014 H   0  0  0  0  0  0  0  0  0  0  0  0
    3.3369   -2.8226   -0.5854 C   0  0  0  0  0  0  0  0  0  0  0  0
    4.3549   -2.8890   -1.0379 H   0  0  0  0  0  0  0  0  0  0  0  0
    2.6870   -3.5797   -1.0643 H   0  0  0  0  0  0  0  0  0  0  0  0
    3.4281   -3.0623    0.4873 H   0  0  0  0  0  0  0  0  0  0  0  0
  1 22  1  0  0  0  0
  1  2  1  0  0  0  0
  2  4  1  0  0  0  0
  3  2  1  0  0  0  0
  5  2  1  0  0  0  0
  6  5  2  0  0  0  0
  7 16  1  0  0  0  0
  7  6  1  0  0  0  0
  8  7  2  0  0  0  0
  9  8  1  0  0  0  0
 10 12  2  0  0  0  0
 10  8  1  0  0  0  0
 11 10  1  0  0  0  0
 12 14  1  0  0  0  0
 13 12  1  0  0  0  0
 14 15  1  0  0  0  0
 14 16  1  0  0  0  0
 16 17  2  0  0  0  0
 17  5  1  0  0  0  0
 18  1  1  0  0  0  0
 19 18  1  0  0  0  0
 20 18  1  0  0  0  0
 21 18  1  0  0  0  0
 22 25  1  0  0  0  0
 23 22  1  0  0  0  0
 24 22  1  0  0  0  0
M  END
