17,27
 OpenBabel05122313053D

 36 39  0  0  1  0  0  0  0  0999 V2000
    6.2127   -1.4266    0.5396 Cl  0  0  0  0  0  0  0  0  0  0  0  0
    3.5237    3.2730   -0.0080 Cl  0  0  0  0  0  0  0  0  0  0  0  0
    1.1415    1.4667   -0.4581 N   0  0  0  0  0  0  0  0  0  0  0  0
    1.2229   -1.3166   -0.5342 N   0  0  0  0  0  0  0  0  0  0  0  0
    3.5376   -2.7077   -0.0783 N   0  0  0  0  0  0  0  0  0  0  0  0
    4.3400   -3.2280    0.2724 H   0  0  0  0  0  0  0  0  0  0  0  0
    2.6143   -3.1424   -0.1110 H   0  0  0  0  0  0  0  0  0  0  0  0
    0.0235    0.7694   -0.6058 C   0  0  0  0  0  0  0  0  0  0  0  0
    0.0626   -0.6836   -0.6658 C   0  0  0  0  0  0  0  0  0  0  0  0
    2.3429   -0.6139   -0.2598 C   0  0  0  0  0  0  0  0  0  0  0  0
    3.5608   -1.3508   -0.0271 C   0  0  0  0  0  0  0  0  0  0  0  0
    4.7142   -0.5837    0.2239 C   0  0  0  0  0  0  0  0  0  0  0  0
    4.7007    0.8286    0.2302 C   0  0  0  0  0  0  0  0  0  0  0  0
    5.6353    1.3697    0.4282 H   0  0  0  0  0  0  0  0  0  0  0  0
    3.5252    1.5369   -0.0058 C   0  0  0  0  0  0  0  0  0  0  0  0
    2.3111    0.8247   -0.2382 C   0  0  0  0  0  0  0  0  0  0  0  0
   -2.3416    1.3626   -0.2040 N   0  0  0  0  0  2  0  0  0  0  0  0
   -1.1792    1.6300   -0.8374 C   0  0  1  0  0  3  0  0  0  0  0  0
   -1.0583    2.7510   -1.6834 C   0  0  0  0  0  0  0  0  0  0  0  0
   -0.0839    2.9612   -2.1441 H   0  0  0  0  0  0  0  0  0  0  0  0
   -2.1738    3.5677   -1.8958 C   0  0  0  0  0  0  0  0  0  0  0  0
   -2.1002    4.4439   -2.5577 H   0  0  0  0  0  0  0  0  0  0  0  0
   -3.3827    3.2559   -1.2542 C   0  0  0  0  0  0  0  0  0  0  0  0
   -4.2837    3.8697   -1.3957 H   0  0  0  0  0  0  0  0  0  0  0  0
   -3.4199    2.1448   -0.4054 C   0  0  0  0  0  0  0  0  0  0  0  0
   -4.3229    1.8387    0.1531 H   0  0  0  0  0  0  0  0  0  0  0  0
   -2.2464   -1.5107   -0.3758 N   0  0  0  0  0  2  0  0  0  0  0  0
   -1.0722   -1.5853   -1.0377 C   0  0  2  0  0  3  0  0  0  0  0  0
   -0.8805   -2.5386   -2.0584 C   0  0  0  0  0  0  0  0  0  0  0  0
    0.0934   -2.5890   -2.5639 H   0  0  0  0  0  0  0  0  0  0  0  0
   -1.9346   -3.3928   -2.4015 C   0  0  0  0  0  0  0  0  0  0  0  0
   -1.8057   -4.1378   -3.2014 H   0  0  0  0  0  0  0  0  0  0  0  0
   -3.1552   -3.2831   -1.7175 C   0  0  0  0  0  0  0  0  0  0  0  0
   -4.0096   -3.9313   -1.9587 H   0  0  0  0  0  0  0  0  0  0  0  0
   -3.2664   -2.3265   -0.7025 C   0  0  0  0  0  0  0  0  0  0  0  0
   -4.1856   -2.1754   -0.1080 H   0  0  0  0  0  0  0  0  0  0  0  0
  2 15  1  0  0  0  0
  3 16  1  0  0  0  0
  4 10  1  0  0  0  0
  5 11  1  0  0  0  0
  5  6  1  0  0  0  0
  7  5  1  0  0  0  0
  8  3  2  0  0  0  0
  9  8  1  0  0  0  0
  9  4  2  0  0  0  0
 10 16  2  0  0  0  0
 10 11  1  0  0  0  0
 11 12  2  0  0  0  0
 12 13  1  0  0  0  0
 12  1  1  0  0  0  0
 13 14  1  0  0  0  0
 15 13  2  0  0  0  0
 16 15  1  0  0  0  0
 18  8  1  1  0  0  0
 18 17  1  0  0  0  0
 19 18  1  0  0  0  0
 20 19  1  0  0  0  0
 21 19  2  0  0  0  0
 21 23  1  0  0  0  0
 22 21  1  0  0  0  0
 23 25  2  0  0  0  0
 24 23  1  0  0  0  0
 25 17  1  0  0  0  0
 25 26  1  0  0  0  0
 28  9  1  1  0  0  0
 28 27  1  0  0  0  0
 29 28  1  0  0  0  0
 30 29  1  0  0  0  0
 31 29  2  0  0  0  0
 31 33  1  0  0  0  0
 32 31  1  0  0  0  0
 33 35  2  0  0  0  0
 34 33  1  0  0  0  0
 35 27  1  0  0  0  0
 35 36  1  0  0  0  0
M  END
