2,8
 OpenBabel05122313053D

 27 29  0  0  1  0  0  0  0  0999 V2000
   -0.7290    1.8776   -0.0675 N   0  0  0  0  0  0  0  0  0  0  0  0
    0.2354    0.9028   -0.0002 N   0  0  0  0  0  2  0  0  0  0  0  0
    1.4205    1.5450   -0.0748 C   0  0  1  0  0  3  0  0  0  0  0  0
    1.1862    2.9527   -0.2285 C   0  0  0  0  0  0  0  0  0  0  0  0
    1.9536    3.7296   -0.2931 H   0  0  0  0  0  0  0  0  0  0  0  0
   -0.1810    3.1289   -0.2089 C   0  0  0  0  0  0  0  0  0  0  0  0
   -0.8330    4.0060   -0.2590 H   0  0  0  0  0  0  0  0  0  0  0  0
   -2.2978    0.1870    0.1473 N   0  0  0  0  0  2  0  0  0  0  0  0
   -2.9880    2.4848    0.0616 N   0  0  0  0  0  0  0  0  0  0  0  0
   -2.0732    1.5226    0.0519 C   0  0  2  0  0  3  0  0  0  0  0  0
   -4.2642    2.0866    0.1909 C   0  0  0  0  0  0  0  0  0  0  0  0
   -5.0287    2.8815    0.1969 H   0  0  0  0  0  0  0  0  0  0  0  0
   -4.6160    0.7321    0.3118 C   0  0  0  0  0  0  0  0  0  0  0  0
   -5.6618    0.4145    0.4199 H   0  0  0  0  0  0  0  0  0  0  0  0
   -3.5836   -0.2098    0.2802 C   0  0  0  0  0  0  0  0  0  0  0  0
   -3.7161   -1.3053    0.3365 H   0  0  0  0  0  0  0  0  0  0  0  0
    2.7347    0.9098    0.0754 C   0  0  0  0  0  0  0  0  0  0  0  0
    3.8275    1.3943   -0.6776 C   0  0  0  0  0  0  0  0  0  0  0  0
    3.6665    2.1894   -1.4214 H   0  0  0  0  0  0  0  0  0  0  0  0
    5.1040    0.8446   -0.5065 C   0  0  0  0  0  0  0  0  0  0  0  0
    5.9455    1.2165   -1.1099 H   0  0  0  0  0  0  0  0  0  0  0  0
    5.3046   -0.1827    0.4300 C   0  0  0  0  0  0  0  0  0  0  0  0
    6.3079   -0.6140    0.5670 H   0  0  0  0  0  0  0  0  0  0  0  0
    4.2253   -0.6591    1.1909 C   0  0  0  0  0  0  0  0  0  0  0  0
    4.3777   -1.4656    1.9231 H   0  0  0  0  0  0  0  0  0  0  0  0
    2.9446   -0.1226    1.0150 C   0  0  0  0  0  0  0  0  0  0  0  0
    2.1008   -0.4973    1.6086 H   0  0  0  0  0  0  0  0  0  0  0  0
  1  2  1  0  0  0  0
  3  2  1  0  0  0  0
  3 17  1  1  0  0  0
  4  6  2  0  0  0  0
  4  3  1  0  0  0  0
  5  4  1  0  0  0  0
  6  1  1  0  0  0  0
  7  6  1  0  0  0  0
  8 15  1  0  0  0  0
  9 11  2  0  0  0  0
 10  1  1  6  0  0  0
 10  9  1  0  0  0  0
 10  8  1  0  0  0  0
 11 12  1  0  0  0  0
 11 13  1  0  0  0  0
 13 14  1  0  0  0  0
 15 13  2  0  0  0  0
 15 16  1  0  0  0  0
 17 26  1  0  0  0  0
 18 20  1  0  0  0  0
 18 17  2  0  0  0  0
 19 18  1  0  0  0  0
 20 22  2  0  0  0  0
 21 20  1  0  0  0  0
 22 23  1  0  0  0  0
 22 24  1  0  0  0  0
 24 25  1  0  0  0  0
 26 24  2  0  0  0  0
 26 27  1  0  0  0  0
M  END
