3,4
 OpenBabel05122313053D

 31 34  0  0  1  0  0  0  0  0999 V2000
   -8.4792   -0.6375    0.6273 O   0  0  0  0  0  0  0  0  0  0  0  0
   -7.8395    0.6671   -1.1819 O   0  0  0  0  0  0  0  0  0  0  0  0
   -2.1043   -0.3128    0.6637 N   0  0  0  0  0  2  0  0  0  0  0  0
   -1.2147    1.6446   -0.9129 N   0  0  0  0  0  2  0  0  0  0  0  0
   -2.5376   -1.4919    1.4099 C   0  0  0  0  0  0  0  0  0  0  0  0
   -1.6820   -1.8548    2.0087 H   0  0  0  0  0  0  0  0  0  0  0  0
   -2.7683   -2.3009    0.6768 H   0  0  0  0  0  0  0  0  0  0  0  0
   -3.7690   -1.1895    2.2569 C   0  0  0  0  0  0  0  0  0  0  0  0
   -4.1029   -2.1009    2.7894 H   0  0  0  0  0  0  0  0  0  0  0  0
   -3.5120   -0.4401    3.0418 H   0  0  0  0  0  0  0  0  0  0  0  0
   -4.8599   -0.6538    1.3631 C   0  0  0  0  0  0  0  0  0  0  0  0
   -6.2177   -0.9677    1.5674 C   0  0  0  0  0  0  0  0  0  0  0  0
   -6.5404   -1.6101    2.3983 H   0  0  0  0  0  0  0  0  0  0  0  0
   -7.1394   -0.4533    0.6578 C   0  0  0  0  0  0  0  0  0  0  0  0
   -8.9685    0.0721   -0.5278 C   0  0  0  0  0  0  0  0  0  0  0  0
   -9.6764    0.8646   -0.1989 H   0  0  0  0  0  0  0  0  0  0  0  0
   -9.4695   -0.6451   -1.2140 H   0  0  0  0  0  0  0  0  0  0  0  0
   -6.7444    0.3445   -0.4372 C   0  0  0  0  0  0  0  0  0  0  0  0
   -5.4197    0.6828   -0.6504 C   0  0  0  0  0  0  0  0  0  0  0  0
   -5.1312    1.2662   -1.5336 H   0  0  0  0  0  0  0  0  0  0  0  0
   -4.4591    0.1895    0.2859 C   0  0  0  0  0  0  0  0  0  0  0  0
   -3.0249    0.4761    0.1669 C   0  0  1  0  0  3  0  0  0  0  0  0
   -2.5070    1.7072   -0.5146 C   0  0  1  0  0  3  0  0  0  0  0  0
   -3.2479    2.8957   -0.6532 C   0  0  0  0  0  0  0  0  0  0  0  0
   -4.2737    2.9572   -0.2675 H   0  0  0  0  0  0  0  0  0  0  0  0
   -2.6433    4.0084   -1.2575 C   0  0  0  0  0  0  0  0  0  0  0  0
   -3.2063    4.9465   -1.3732 H   0  0  0  0  0  0  0  0  0  0  0  0
   -1.3169    3.9132   -1.6974 C   0  0  0  0  0  0  0  0  0  0  0  0
   -0.8094    4.7606   -2.1797 H   0  0  0  0  0  0  0  0  0  0  0  0
   -0.6330    2.7069   -1.4850 C   0  0  0  0  0  0  0  0  0  0  0  0
    0.4254    2.5802   -1.7662 H   0  0  0  0  0  0  0  0  0  0  0  0
  1 14  1  0  0  0  0
  2 15  1  0  0  0  0
  2 18  1  0  0  0  0
  3  5  1  0  0  0  0
  5  6  1  0  0  0  0
  5  8  1  0  0  0  0
  7  5  1  0  0  0  0
  8  9  1  0  0  0  0
  8 10  1  0  0  0  0
 11 12  1  0  0  0  0
 11  8  1  0  0  0  0
 12 13  1  0  0  0  0
 14 12  2  0  0  0  0
 15 16  1  0  0  0  0
 15  1  1  0  0  0  0
 17 15  1  0  0  0  0
 18 14  1  0  0  0  0
 19 18  2  0  0  0  0
 19 21  1  0  0  0  0
 20 19  1  0  0  0  0
 21 11  2  0  0  0  0
 22 21  1  1  0  0  0
 22  3  1  0  0  0  0
 23  4  1  1  0  0  0
 23 22  1  0  0  0  0
 24 23  1  0  0  0  0
 24 25  1  0  0  0  0
 26 24  2  0  0  0  0
 27 26  1  0  0  0  0
 28 30  2  0  0  0  0
 28 26  1  0  0  0  0
 29 28  1  0  0  0  0
 30  4  1  0  0  0  0
 31 30  1  0  0  0  0
M  END
