1,28
 OpenBabel05122313053D

 54 57  0  0  0  0  0  0  0  0999 V2000
   -1.6838   -1.4618   -0.0373 N   0  0  0  0  0  2  0  0  0  0  0  0
   -2.9536   -3.5459   -0.0626 C   0  0  0  0  0  0  0  0  0  0  0  0
   -3.5464   -3.2845    0.8385 H   0  0  0  0  0  0  0  0  0  0  0  0
   -2.8127   -4.6420   -0.0815 H   0  0  0  0  0  0  0  0  0  0  0  0
   -3.5559   -3.2548   -0.9481 H   0  0  0  0  0  0  0  0  0  0  0  0
   -1.6399   -2.8146   -0.0563 C   0  0  0  0  0  0  0  0  0  0  0  0
   -0.4180   -3.5005   -0.0807 C   0  0  0  0  0  0  0  0  0  0  0  0
   -0.4250   -4.5978   -0.1300 H   0  0  0  0  0  0  0  0  0  0  0  0
    0.8058   -2.7933   -0.0794 C   0  0  0  0  0  0  0  0  0  0  0  0
    0.7153   -1.3838   -0.0541 C   0  0  0  0  0  0  0  0  0  0  0  0
    1.6365   -0.7911   -0.0168 H   0  0  0  0  0  0  0  0  0  0  0  0
   -0.5335   -0.7461   -0.0369 C   0  0  0  0  0  0  0  0  0  0  0  0
    2.1076   -3.4827   -0.1019 C   0  0  0  0  0  0  0  0  0  0  0  0
    2.2579   -4.7825    0.4318 C   0  0  0  0  0  0  0  0  0  0  0  0
    1.3983   -5.2836    0.9012 H   0  0  0  0  0  0  0  0  0  0  0  0
    3.4895   -5.4450    0.4240 C   0  0  0  0  0  0  0  0  0  0  0  0
    3.5638   -6.4466    0.8670 H   0  0  0  0  0  0  0  0  0  0  0  0
    4.6214   -4.8144   -0.1408 C   0  0  0  0  0  0  0  0  0  0  0  0
    4.4872   -3.5147   -0.6860 C   0  0  0  0  0  0  0  0  0  0  0  0
    5.3739   -3.0462   -1.1362 H   0  0  0  0  0  0  0  0  0  0  0  0
    3.2576   -2.8657   -0.6597 C   0  0  0  0  0  0  0  0  0  0  0  0
    3.1771   -1.8691   -1.1188 H   0  0  0  0  0  0  0  0  0  0  0  0
    5.8526   -5.3604   -0.2072 O   0  0  0  0  0  0  0  0  0  0  0  0
    6.0556   -6.6703    0.3070 C   0  0  0  0  0  0  0  0  0  0  0  0
    7.1213   -6.9069    0.1376 H   0  0  0  0  0  0  0  0  0  0  0  0
    5.4273   -7.4188   -0.2232 H   0  0  0  0  0  0  0  0  0  0  0  0
    5.8406   -6.7193    1.3967 H   0  0  0  0  0  0  0  0  0  0  0  0
   -1.9121    1.2595    0.0272 N   0  0  0  0  0  2  0  0  0  0  0  0
   -3.5111    3.1024    0.0917 C   0  0  0  0  0  0  0  0  0  0  0  0
   -4.0326    2.7149    0.9913 H   0  0  0  0  0  0  0  0  0  0  0  0
   -4.0757    2.7460   -0.7949 H   0  0  0  0  0  0  0  0  0  0  0  0
   -3.5544    4.2066    0.1117 H   0  0  0  0  0  0  0  0  0  0  0  0
   -2.0945    2.6005    0.0473 C   0  0  0  0  0  0  0  0  0  0  0  0
   -1.0042    3.4811    0.0374 C   0  0  0  0  0  0  0  0  0  0  0  0
   -1.1933    4.5620    0.0871 H   0  0  0  0  0  0  0  0  0  0  0  0
    0.3202    2.9887    0.0001 C   0  0  0  0  0  0  0  0  0  0  0  0
    0.4660    1.5837   -0.0255 C   0  0  0  0  0  0  0  0  0  0  0  0
    1.4719    1.1535   -0.0920 H   0  0  0  0  0  0  0  0  0  0  0  0
   -0.6586    0.7463   -0.0076 C   0  0  0  0  0  0  0  0  0  0  0  0
    1.4862    3.8888   -0.0136 C   0  0  0  0  0  0  0  0  0  0  0  0
    1.3957    5.1999   -0.5495 C   0  0  0  0  0  0  0  0  0  0  0  0
    0.4514    5.5461   -0.9949 H   0  0  0  0  0  0  0  0  0  0  0  0
    2.4939    6.0526   -0.5664 C   0  0  0  0  0  0  0  0  0  0  0  0
    2.4298    7.0616   -0.9976 H   0  0  0  0  0  0  0  0  0  0  0  0
    3.7353    5.6307   -0.0319 C   0  0  0  0  0  0  0  0  0  0  0  0
    3.8454    4.3310    0.5127 C   0  0  0  0  0  0  0  0  0  0  0  0
    4.7893    3.9804    0.9499 H   0  0  0  0  0  0  0  0  0  0  0  0
    2.7340    3.4821    0.5107 C   0  0  0  0  0  0  0  0  0  0  0  0
    2.8369    2.4869    0.9687 H   0  0  0  0  0  0  0  0  0  0  0  0
    4.7397    6.5287   -0.0869 O   0  0  0  0  0  0  0  0  0  0  0  0
    6.0160    6.1697    0.4256 C   0  0  0  0  0  0  0  0  0  0  0  0
    6.6692    7.0469    0.2702 H   0  0  0  0  0  0  0  0  0  0  0  0
    6.4427    5.2972   -0.1156 H   0  0  0  0  0  0  0  0  0  0  0  0
    5.9696    5.9384    1.5121 H   0  0  0  0  0  0  0  0  0  0  0  0
  1 12  1  0  0  0  0
  2  6  1  0  0  0  0
  2  3  1  0  0  0  0
  4  2  1  0  0  0  0
  5  2  1  0  0  0  0
  6  1  1  0  0  0  0
  7  9  1  0  0  0  0
  7  6  2  0  0  0  0
  8  7  1  0  0  0  0
  9 10  2  0  0  0  0
 10 12  1  0  0  0  0
 10 11  1  0  0  0  0
 12 39  2  0  0  0  0
 13  9  1  0  0  0  0
 13 14  1  0  0  0  0
 14 15  1  0  0  0  0
 16 14  2  0  0  0  0
 16 17  1  0  0  0  0
 18 16  1  0  0  0  0
 19 21  1  0  0  0  0
 19 18  2  0  0  0  0
 20 19  1  0  0  0  0
 21 13  2  0  0  0  0
 22 21  1  0  0  0  0
 23 18  1  0  0  0  0
 23 24  1  0  0  0  0
 24 27  1  0  0  0  0
 25 24  1  0  0  0  0
 26 24  1  0  0  0  0
 28 33  1  0  0  0  0
 29 32  1  0  0  0  0
 29 30  1  0  0  0  0
 31 29  1  0  0  0  0
 33 29  1  0  0  0  0
 34 33  2  0  0  0  0
 34 35  1  0  0  0  0
 36 34  1  0  0  0  0
 37 39  1  0  0  0  0
 37 36  2  0  0  0  0
 38 37  1  0  0  0  0
 39 28  1  0  0  0  0
 40 36  1  0  0  0  0
 40 48  1  0  0  0  0
 41 40  2  0  0  0  0
 42 41  1  0  0  0  0
 43 41  1  0  0  0  0
 43 45  2  0  0  0  0
 44 43  1  0  0  0  0
 45 46  1  0  0  0  0
 46 47  1  0  0  0  0
 48 46  2  0  0  0  0
 48 49  1  0  0  0  0
 50 45  1  0  0  0  0
 50 51  1  0  0  0  0
 51 54  1  0  0  0  0
 52 51  1  0  0  0  0
 53 51  1  0  0  0  0
M  END
