2,4
 OpenBabel05122313053D

 42 44  0  0  1  0  0  0  0  0999 V2000
   -4.5310   -0.1559    0.2707 Si  0  0  0  0  0  0  0  0  0  0  0  0
    1.4213    1.3884   -0.8218 N   0  0  0  0  0  2  0  0  0  0  0  0
    0.1119    1.3514   -1.1827 N   0  0  0  0  0  0  0  0  0  0  0  0
    0.9729   -1.4086   -0.8303 N   0  0  0  0  0  2  0  0  0  0  0  0
   -0.3053   -1.0081   -1.0816 N   0  0  0  0  0  0  0  0  0  0  0  0
   -0.6932    0.3703    0.8263 N   0  0  0  0  0  0  0  0  0  0  0  0
   -0.8738    1.5837    1.3916 N   0  0  0  0  0  0  0  0  0  0  0  0
   -3.0618   -0.4253   -0.5936 O   0  0  0  0  0  0  0  0  0  0  0  0
   -0.7603    0.3044   -0.6343 C   0  0  1  0  0  0  0  0  0  0  0  0
   -2.2240    0.5685   -1.0880 C   0  0  0  0  0  0  0  0  0  0  0  0
    1.9274    2.5358   -1.2904 C   0  0  0  0  0  3  0  0  0  0  0  0
    0.9210    3.2670   -1.9637 C   0  0  0  0  0  0  0  0  0  0  0  0
    1.0176    4.2397   -2.4552 H   0  0  0  0  0  0  0  0  0  0  0  0
   -0.2264    2.4929   -1.8669 C   0  0  0  0  0  0  0  0  0  0  0  0
    1.0976   -2.6468   -1.3260 C   0  0  0  0  0  3  0  0  0  0  0  0
   -0.1222   -3.0567   -1.9143 C   0  0  0  0  0  0  0  0  0  0  0  0
   -0.9988   -1.9946   -1.7421 C   0  0  0  0  0  0  0  0  0  0  0  0
   -2.0601   -1.8756   -1.9727 H   0  0  0  0  0  0  0  0  0  0  0  0
   -0.4746   -0.6272    1.7439 C   0  0  0  0  0  0  0  0  0  0  0  0
   -0.5123   -0.0098    2.9878 C   0  0  0  0  0  0  0  0  0  0  0  0
   -0.3482   -0.4864    3.9592 H   0  0  0  0  0  0  0  0  0  0  0  0
   -0.7569    1.3607    2.7057 C   0  0  0  0  0  0  0  0  0  0  0  0
   -5.1740   -1.8937    0.5498 C   0  0  0  0  0  0  0  0  0  0  0  0
   -5.3635   -2.4128   -0.4112 H   0  0  0  0  0  0  0  0  0  0  0  0
   -6.1241   -1.8734    1.1216 H   0  0  0  0  0  0  0  0  0  0  0  0
   -4.4405   -2.4916    1.1276 H   0  0  0  0  0  0  0  0  0  0  0  0
   -4.1619    0.7387    1.8770 C   0  0  0  0  0  0  0  0  0  0  0  0
   -3.6916    1.7269    1.7026 H   0  0  0  0  0  0  0  0  0  0  0  0
   -3.4646    0.1477    2.5048 H   0  0  0  0  0  0  0  0  0  0  0  0
   -5.0982    0.9001    2.4506 H   0  0  0  0  0  0  0  0  0  0  0  0
   -5.6684    0.8623   -0.8346 C   0  0  0  0  0  0  0  0  0  0  0  0
   -5.2394    1.8627   -1.0502 H   0  0  0  0  0  0  0  0  0  0  0  0
   -6.6485    1.0263   -0.3406 H   0  0  0  0  0  0  0  0  0  0  0  0
   -5.8559    0.3511   -1.8007 H   0  0  0  0  0  0  0  0  0  0  0  0
    2.0599   -3.1569   -1.1951 H   0  0  0  0  0  0  0  0  0  0  0  0
   -1.2414    2.6762   -2.2270 H   0  0  0  0  0  0  0  0  0  0  0  0
   -0.8511    2.1991    3.4073 H   0  0  0  0  0  0  0  0  0  0  0  0
   -0.2748   -1.6618    1.4518 H   0  0  0  0  0  0  0  0  0  0  0  0
   -0.3404   -4.0142   -2.3970 H   0  0  0  0  0  0  0  0  0  0  0  0
   -2.2502    0.5996   -2.2018 H   0  0  0  0  0  0  0  0  0  0  0  0
   -2.4638    1.5814   -0.6961 H   0  0  0  0  0  0  0  0  0  0  0  0
    2.9846    2.7499   -1.0901 H   0  0  0  0  0  0  0  0  0  0  0  0
  1 23  1  0  0  0  0
  1 27  1  0  0  0  0
  3  2  1  0  0  0  0
  3  9  1  0  0  0  0
  5  4  1  0  0  0  0
  5  9  1  0  0  0  0
  6  7  1  0  0  0  0
  6 19  1  0  0  0  0
  7 22  2  0  0  0  0
  8  1  1  0  0  0  0
  9 10  1  6  0  0  0
  9  6  1  0  0  0  0
 10 41  1  0  0  0  0
 10  8  1  0  0  0  0
 11 42  1  0  0  0  0
 11  2  1  0  0  0  0
 12 14  2  0  0  0  0
 12 11  1  0  0  0  0
 13 12  1  0  0  0  0
 14  3  1  0  0  0  0
 15 35  1  0  0  0  0
 15  4  1  0  0  0  0
 16 17  2  0  0  0  0
 16 15  1  0  0  0  0
 17  5  1  0  0  0  0
 18 17  1  0  0  0  0
 19 20  2  0  0  0  0
 20 21  1  0  0  0  0
 22 20  1  0  0  0  0
 22 37  1  0  0  0  0
 23 25  1  0  0  0  0
 23 26  1  0  0  0  0
 24 23  1  0  0  0  0
 27 30  1  0  0  0  0
 27 29  1  0  0  0  0
 28 27  1  0  0  0  0
 31 33  1  0  0  0  0
 31  1  1  0  0  0  0
 32 31  1  0  0  0  0
 34 31  1  0  0  0  0
 36 14  1  0  0  0  0
 38 19  1  0  0  0  0
 39 16  1  0  0  0  0
 40 10  1  0  0  0  0
M  END
