1,2
 OpenBabel05122313053D

 51 53  0  0  0  0  0  0  0  0999 V2000
    2.6372   -1.5399    0.5198 N   0  0  0  0  0  2  0  0  0  0  0  0
    1.1198    0.4677   -0.1697 N   0  0  0  0  0  2  0  0  0  0  0  0
    0.4764    1.6203   -0.4484 N   0  0  0  0  0  0  0  0  0  0  0  0
   -0.0459    4.4996   -1.0259 N   0  0  0  0  0  0  0  0  0  0  0  0
    3.3535   -2.6478    0.8256 C   0  0  0  0  0  0  0  0  0  0  0  0
    2.9042   -3.5921    0.4749 H   0  0  0  0  0  0  0  0  0  0  0  0
    4.5582   -2.5762    1.5281 C   0  0  0  0  0  0  0  0  0  0  0  0
    5.1015   -3.5050    1.7516 H   0  0  0  0  0  0  0  0  0  0  0  0
    5.0500   -1.3241    1.9333 C   0  0  0  0  0  0  0  0  0  0  0  0
    5.9965   -1.2420    2.4871 H   0  0  0  0  0  0  0  0  0  0  0  0
    4.3124   -0.1793    1.6184 C   0  0  0  0  0  0  0  0  0  0  0  0
    4.6567    0.8216    1.9133 H   0  0  0  0  0  0  0  0  0  0  0  0
    3.1064   -0.3094    0.9097 C   0  0  0  0  0  0  0  0  0  0  0  0
    2.2492    0.7923    0.5258 C   0  0  0  0  0  0  0  0  0  0  0  0
    2.3105    2.1851    0.7029 C   0  0  0  0  0  0  0  0  0  0  0  0
    3.1032    2.7616    1.1875 H   0  0  0  0  0  0  0  0  0  0  0  0
    1.1644    2.6962    0.0775 C   0  0  0  0  0  0  0  0  0  0  0  0
    0.7539    4.1099   -0.0108 C   0  0  0  0  0  0  0  0  0  0  0  0
    1.2337    5.0273    0.9555 C   0  0  0  0  0  0  0  0  0  0  0  0
    1.8564    4.6803    1.7920 H   0  0  0  0  0  0  0  0  0  0  0  0
    0.8812    6.3754    0.8423 C   0  0  0  0  0  0  0  0  0  0  0  0
    1.2405    7.1061    1.5827 H   0  0  0  0  0  0  0  0  0  0  0  0
    0.0538    6.7756   -0.2178 C   0  0  0  0  0  0  0  0  0  0  0  0
   -0.2526    7.8243   -0.3431 H   0  0  0  0  0  0  0  0  0  0  0  0
   -0.3855    5.7915   -1.1172 C   0  0  0  0  0  0  0  0  0  0  0  0
   -1.0456    6.0608   -1.9606 H   0  0  0  0  0  0  0  0  0  0  0  0
   -0.8545    1.6123   -1.0563 C   0  0  0  0  0  0  0  0  0  0  0  0
   -0.8495    0.8173   -1.8278 H   0  0  0  0  0  0  0  0  0  0  0  0
   -0.9777    2.6044   -1.5256 H   0  0  0  0  0  0  0  0  0  0  0  0
   -1.9456    1.3149   -0.0258 C   0  0  0  0  0  0  0  0  0  0  0  0
   -1.6980    0.3524    0.4666 H   0  0  0  0  0  0  0  0  0  0  0  0
   -1.9498    2.1032    0.7599 H   0  0  0  0  0  0  0  0  0  0  0  0
   -3.3203    1.2121   -0.6907 C   0  0  0  0  0  0  0  0  0  0  0  0
   -3.2443    0.4821   -1.5256 H   0  0  0  0  0  0  0  0  0  0  0  0
   -3.5820    2.1910   -1.1498 H   0  0  0  0  0  0  0  0  0  0  0  0
   -4.4453    0.7684    0.2536 C   0  0  0  0  0  0  0  0  0  0  0  0
   -4.5526    1.5020    1.0859 H   0  0  0  0  0  0  0  0  0  0  0  0
   -5.4029    0.8111   -0.3082 H   0  0  0  0  0  0  0  0  0  0  0  0
   -4.2573   -0.6379    0.8395 C   0  0  0  0  0  0  0  0  0  0  0  0
   -4.0271   -1.3504    0.0161 H   0  0  0  0  0  0  0  0  0  0  0  0
   -3.3566   -0.6490    1.4892 H   0  0  0  0  0  0  0  0  0  0  0  0
   -5.4530   -1.1530    1.6518 C   0  0  0  0  0  0  0  0  0  0  0  0
   -5.7057   -0.4154    2.4486 H   0  0  0  0  0  0  0  0  0  0  0  0
   -5.1509   -2.0795    2.1882 H   0  0  0  0  0  0  0  0  0  0  0  0
   -6.7111   -1.4565    0.8294 C   0  0  0  0  0  0  0  0  0  0  0  0
   -6.4494   -2.1848    0.0296 H   0  0  0  0  0  0  0  0  0  0  0  0
   -7.0475   -0.5387    0.2992 H   0  0  0  0  0  0  0  0  0  0  0  0
   -7.8647   -2.0047    1.6704 C   0  0  0  0  0  0  0  0  0  0  0  0
   -8.7596   -2.2226    1.0528 H   0  0  0  0  0  0  0  0  0  0  0  0
   -8.1691   -1.2821    2.4568 H   0  0  0  0  0  0  0  0  0  0  0  0
   -7.5765   -2.9456    2.1849 H   0  0  0  0  0  0  0  0  0  0  0  0
  1  5  1  0  0  0  0
  1 13  1  0  0  0  0
  2 14  1  0  0  0  0
  3  2  1  0  0  0  0
  3 17  1  0  0  0  0
  4 18  1  0  0  0  0
  5  7  2  0  0  0  0
  6  5  1  0  0  0  0
  7  8  1  0  0  0  0
  7  9  1  0  0  0  0
  9 10  1  0  0  0  0
 11 12  1  0  0  0  0
 11  9  2  0  0  0  0
 13 11  1  0  0  0  0
 14 15  1  0  0  0  0
 14 13  2  0  0  0  0
 15 16  1  0  0  0  0
 17 15  2  0  0  0  0
 18 17  1  0  0  0  0
 18 19  2  0  0  0  0
 19 20  1  0  0  0  0
 21 19  1  0  0  0  0
 21 22  1  0  0  0  0
 23 21  2  0  0  0  0
 24 23  1  0  0  0  0
 25  4  2  0  0  0  0
 25 23  1  0  0  0  0
 26 25  1  0  0  0  0
 27  3  1  0  0  0  0
 27 30  1  0  0  0  0
 28 27  1  0  0  0  0
 29 27  1  0  0  0  0
 30 31  1  0  0  0  0
 30 32  1  0  0  0  0
 33 30  1  0  0  0  0
 33 36  1  0  0  0  0
 34 33  1  0  0  0  0
 35 33  1  0  0  0  0
 36 39  1  0  0  0  0
 36 37  1  0  0  0  0
 38 36  1  0  0  0  0
 39 41  1  0  0  0  0
 39 42  1  0  0  0  0
 40 39  1  0  0  0  0
 42 44  1  0  0  0  0
 42 43  1  0  0  0  0
 45 42  1  0  0  0  0
 45 48  1  0  0  0  0
 46 45  1  0  0  0  0
 47 45  1  0  0  0  0
 48 51  1  0  0  0  0
 48 50  1  0  0  0  0
 49 48  1  0  0  0  0
M  END
