2,5
 OpenBabel05122313053D

 27 26  0  0  0  0  0  0  0  0999 V2000
   -1.2047    2.5709   -0.2340 O   0  0  0  0  0  0  0  0  0  0  0  0
   -1.3653    1.2489   -0.2884 N   0  0  0  0  0  2  0  0  0  0  0  0
   -2.5545    0.7393   -0.5524 C   0  0  0  0  0  0  0  0  0  0  0  0
   -1.2105   -2.5399   -0.2247 O   0  0  0  0  0  1  0  0  0  0  0  0
   -1.3812   -1.2560   -0.2866 N   0  0  0  0  0  2  0  0  0  0  0  0
   -2.5693   -0.7226   -0.5532 C   0  0  0  0  0  0  0  0  0  0  0  0
   -3.7483    1.6191   -0.7590 C   0  0  0  0  0  0  0  0  0  0  0  0
   -4.3548    2.1160    0.5701 C   0  0  0  0  0  0  0  0  0  0  0  0
   -5.5482    3.0457    0.3596 C   0  0  0  0  0  0  0  0  0  0  0  0
   -3.7688   -1.5941   -0.7602 C   0  0  0  0  0  0  0  0  0  0  0  0
   -4.3638   -2.1203    0.5620 C   0  0  0  0  0  0  0  0  0  0  0  0
   -5.5491   -3.0586    0.3434 C   0  0  0  0  0  0  0  0  0  0  0  0
   -0.1314    2.6818   -0.0314 H   0  0  0  0  0  0  0  0  0  0  0  0
   -3.4234    2.4984   -1.3539 H   0  0  0  0  0  0  0  0  0  0  0  0
   -4.5174    1.0806   -1.3487 H   0  0  0  0  0  0  0  0  0  0  0  0
   -4.6554    1.2386    1.1827 H   0  0  0  0  0  0  0  0  0  0  0  0
   -3.5565    2.6365    1.1389 H   0  0  0  0  0  0  0  0  0  0  0  0
   -5.9657    3.3939    1.3255 H   0  0  0  0  0  0  0  0  0  0  0  0
   -6.3652    2.5387   -0.1955 H   0  0  0  0  0  0  0  0  0  0  0  0
   -5.2590    3.9440   -0.2242 H   0  0  0  0  0  0  0  0  0  0  0  0
   -3.4467   -2.4634   -1.3726 H   0  0  0  0  0  0  0  0  0  0  0  0
   -4.5442   -1.0490   -1.3363 H   0  0  0  0  0  0  0  0  0  0  0  0
   -3.5558   -2.6433    1.1146 H   0  0  0  0  0  0  0  0  0  0  0  0
   -4.6689   -1.2575    1.1932 H   0  0  0  0  0  0  0  0  0  0  0  0
   -5.2537   -3.9438   -0.2572 H   0  0  0  0  0  0  0  0  0  0  0  0
   -5.9582   -3.4279    1.3051 H   0  0  0  0  0  0  0  0  0  0  0  0
   -6.3744   -2.5514   -0.1993 H   0  0  0  0  0  0  0  0  0  0  0  0
  1 13  1  0  0  0  0
  2  1  1  0  0  0  0
  3  2  1  0  0  0  0
  5  4  1  0  0  0  0
  6  3  2  0  0  0  0
  6  5  1  0  0  0  0
  7  3  1  0  0  0  0
  7  8  1  0  0  0  0
  8 17  1  0  0  0  0
  8 16  1  0  0  0  0
  9  8  1  0  0  0  0
  9 18  1  0  0  0  0
 10  6  1  0  0  0  0
 10 11  1  0  0  0  0
 11 23  1  0  0  0  0
 11 24  1  0  0  0  0
 12 11  1  0  0  0  0
 12 26  1  0  0  0  0
 14  7  1  0  0  0  0
 15  7  1  0  0  0  0
 19  9  1  0  0  0  0
 20  9  1  0  0  0  0
 21 10  1  0  0  0  0
 22 10  1  0  0  0  0
 25 12  1  0  0  0  0
 27 12  1  0  0  0  0
M  END
