1,26
 OpenBabel05122313053D

 31 32  0  0  1  0  0  0  0  0999 V2000
   -0.0595    1.4318   -0.7181 N   0  0  0  0  0  2  0  0  0  0  0  0
    0.3020    2.4284   -1.5475 C   0  0  0  0  0  3  0  0  0  0  0  0
    1.3514    2.4324   -1.8805 H   0  0  0  0  0  0  0  0  0  0  0  0
   -0.6061    3.4098   -1.9660 C   0  0  0  0  0  0  0  0  0  0  0  0
   -0.2744    4.2055   -2.6478 H   0  0  0  0  0  0  0  0  0  0  0  0
   -1.9260    3.3547   -1.4958 C   0  0  0  0  0  0  0  0  0  0  0  0
   -2.6597    4.1159   -1.7999 H   0  0  0  0  0  0  0  0  0  0  0  0
   -2.3009    2.3176   -0.6272 C   0  0  0  0  0  0  0  0  0  0  0  0
   -3.3167    2.2304   -0.2202 H   0  0  0  0  0  0  0  0  0  0  0  0
   -1.3339    1.3756   -0.2648 C   0  0  0  0  0  0  0  0  0  0  0  0
   -1.6186    0.1861    0.6634 C   0  0  0  0  0  0  0  0  0  0  0  0
   -2.8488    0.3771    1.2603 O   0  0  0  0  0  0  0  0  0  0  0  0
   -3.2295   -0.5664    2.2768 C   0  0  0  0  0  0  0  0  0  0  0  0
   -4.2998   -0.3809    2.4768 H   0  0  0  0  0  0  0  0  0  0  0  0
   -2.6489   -0.4076    3.2076 H   0  0  0  0  0  0  0  0  0  0  0  0
   -3.0888   -1.6156    1.9470 H   0  0  0  0  0  0  0  0  0  0  0  0
   -1.5407   -1.1023   -0.1800 C   0  0  1  0  0  3  0  0  0  0  0  0
   -2.6907   -1.7479   -0.6515 C   0  0  0  0  0  0  0  0  0  0  0  0
   -3.6829   -1.3532   -0.3943 H   0  0  0  0  0  0  0  0  0  0  0  0
   -2.5406   -2.8897   -1.4523 C   0  0  0  0  0  0  0  0  0  0  0  0
   -3.4262   -3.4215   -1.8304 H   0  0  0  0  0  0  0  0  0  0  0  0
   -1.2502   -3.3414   -1.7640 C   0  0  0  0  0  0  0  0  0  0  0  0
   -1.0901   -4.2354   -2.3829 H   0  0  0  0  0  0  0  0  0  0  0  0
   -0.1515   -2.6177   -1.2865 C   0  0  0  0  0  0  0  0  0  0  0  0
    0.8831   -2.9105   -1.5234 H   0  0  0  0  0  0  0  0  0  0  0  0
   -0.3026   -1.5172   -0.5246 N   0  0  0  0  0  2  0  0  0  0  0  0
   -0.5400    0.0873    1.6358 O   0  0  0  0  0  0  0  0  0  0  0  0
   -0.4412    1.2103    2.5400 C   0  0  0  0  0  0  0  0  0  0  0  0
   -1.4167    1.4008    3.0251 H   0  0  0  0  0  0  0  0  0  0  0  0
   -0.1050    2.1249    2.0107 H   0  0  0  0  0  0  0  0  0  0  0  0
    0.3080    0.9207    3.2974 H   0  0  0  0  0  0  0  0  0  0  0  0
  1 10  1  0  0  0  0
  2  1  1  0  0  0  0
  3  2  1  0  0  0  0
  4  2  1  0  0  0  0
  4  6  2  0  0  0  0
  5  4  1  0  0  0  0
  6  8  1  0  0  0  0
  7  6  1  0  0  0  0
  8 10  2  0  0  0  0
  8  9  1  0  0  0  0
 10 11  1  0  0  0  0
 11 12  1  0  0  0  0
 11 27  1  0  0  0  0
 12 13  1  0  0  0  0
 13 14  1  0  0  0  0
 13 15  1  0  0  0  0
 16 13  1  0  0  0  0
 17 11  1  6  0  0  0
 18 19  1  0  0  0  0
 18 17  1  0  0  0  0
 20 18  2  0  0  0  0
 21 20  1  0  0  0  0
 22 20  1  0  0  0  0
 22 24  2  0  0  0  0
 23 22  1  0  0  0  0
 24 26  1  0  0  0  0
 25 24  1  0  0  0  0
 26 17  1  0  0  0  0
 27 28  1  0  0  0  0
 28 29  1  0  0  0  0
 28 31  1  0  0  0  0
 30 28  1  0  0  0  0
M  END
