1,3
 OpenBabel05122313053D

 36 38  0  0  0  0  0  0  0  0999 V2000
   -1.6188    1.7580   -1.1157 N   0  0  0  0  0  2  0  0  0  0  0  0
    1.9317    0.0273   -1.1378 C   0  0  0  0  0  0  0  0  0  0  0  0
    0.6400    0.6000   -1.2385 N   0  0  0  0  0  2  0  0  0  0  0  0
   -0.2242    0.1667   -2.1272 C   0  0  0  0  0  0  0  0  0  0  0  0
   -1.5124    0.8097   -2.1054 C   0  0  0  0  0  0  0  0  0  0  0  0
   -2.7514    2.4859   -1.0413 C   0  0  0  0  0  0  0  0  0  0  0  0
    3.0737    0.8334   -1.3335 C   0  0  0  0  0  0  0  0  0  0  0  0
    2.0776   -1.3375   -0.7928 C   0  0  0  0  0  0  0  0  0  0  0  0
    3.3453   -1.8875   -0.6111 C   0  0  0  0  0  0  0  0  0  0  0  0
    5.9264   -2.7325   -0.2171 N   0  0  0  0  0  2  0  0  0  0  0  0
    9.8030   -4.3059    0.3176 C   0  0  0  0  0  0  0  0  0  0  0  0
   -2.5675    0.5365   -2.9957 C   0  0  0  0  0  0  0  0  0  0  0  0
    4.4937   -1.0798   -0.7851 C   0  0  0  0  0  0  0  0  0  0  0  0
    5.8182   -1.5336   -0.6173 N   0  0  0  0  0  2  0  0  0  0  0  0
   -3.8328    2.2708   -1.9046 C   0  0  0  0  0  0  0  0  0  0  0  0
    7.2503   -3.1952   -0.0600 C   0  0  0  0  0  0  0  0  0  0  0  0
    4.3409    0.2725   -1.1650 C   0  0  0  0  0  0  0  0  0  0  0  0
   -3.7508    1.2721   -2.8899 C   0  0  0  0  0  0  0  0  0  0  0  0
    8.4047   -2.4218   -0.3322 C   0  0  0  0  0  0  0  0  0  0  0  0
    8.6598   -5.0759    0.5880 C   0  0  0  0  0  0  0  0  0  0  0  0
    9.6704   -2.9802   -0.1423 C   0  0  0  0  0  0  0  0  0  0  0  0
    7.3869   -4.5232    0.3997 C   0  0  0  0  0  0  0  0  0  0  0  0
    0.0363   -0.6138   -2.8621 H   0  0  0  0  0  0  0  0  0  0  0  0
   -2.7891    3.2500   -0.2532 H   0  0  0  0  0  0  0  0  0  0  0  0
    2.9609    1.8830   -1.6420 H   0  0  0  0  0  0  0  0  0  0  0  0
    1.1752   -1.9515   -0.6562 H   0  0  0  0  0  0  0  0  0  0  0  0
    3.4888   -2.9403   -0.3301 H   0  0  0  0  0  0  0  0  0  0  0  0
   10.8046   -4.7381    0.4638 H   0  0  0  0  0  0  0  0  0  0  0  0
   -2.4391   -0.2428   -3.7606 H   0  0  0  0  0  0  0  0  0  0  0  0
   -4.7336    2.8900   -1.7918 H   0  0  0  0  0  0  0  0  0  0  0  0
    5.2498    0.8715   -1.3212 H   0  0  0  0  0  0  0  0  0  0  0  0
   -4.5936    1.0796   -3.5694 H   0  0  0  0  0  0  0  0  0  0  0  0
    8.2660   -1.3920   -0.6903 H   0  0  0  0  0  0  0  0  0  0  0  0
    8.7634   -6.1111    0.9461 H   0  0  0  0  0  0  0  0  0  0  0  0
   10.5705   -2.3825   -0.3537 H   0  0  0  0  0  0  0  0  0  0  0  0
    6.4684   -5.0947    0.5995 H   0  0  0  0  0  0  0  0  0  0  0  0
  1  6  1  0  0  0  0
  2  8  1  0  0  0  0
  3  2  1  0  0  0  0
  4  5  2  0  0  0  0
  4  3  1  0  0  0  0
  5  1  1  0  0  0  0
  6 24  1  0  0  0  0
  7 17  1  0  0  0  0
  7  2  2  0  0  0  0
  8 26  1  0  0  0  0
  8  9  2  0  0  0  0
  9 27  1  0  0  0  0
 10 16  1  0  0  0  0
 11 28  1  0  0  0  0
 11 20  1  0  0  0  0
 12 18  2  0  0  0  0
 12  5  1  0  0  0  0
 13 14  1  0  0  0  0
 13  9  1  0  0  0  0
 14 10  1  0  0  0  0
 15 30  1  0  0  0  0
 15  6  2  0  0  0  0
 16 22  1  0  0  0  0
 17 13  2  0  0  0  0
 18 15  1  0  0  0  0
 19 21  1  0  0  0  0
 19 16  2  0  0  0  0
 20 34  1  0  0  0  0
 21 11  2  0  0  0  0
 22 20  2  0  0  0  0
 22 36  1  0  0  0  0
 23  4  1  0  0  0  0
 25  7  1  0  0  0  0
 29 12  1  0  0  0  0
 31 17  1  0  0  0  0
 32 18  1  0  0  0  0
 33 19  1  0  0  0  0
 35 21  1  0  0  0  0
M  END
