2,3
 OpenBabel05122313053D

 22 22  0  0  0  0  0  0  0  0999 V2000
   -0.3649   -2.7417    0.1323 O   0  0  0  0  0  1  0  0  0  0  0  0
   -0.9143   -1.6527   -0.0379 N   0  0  0  0  0  2  0  0  0  0  0  0
   -1.6912    0.6530   -0.3315 N   0  0  0  0  0  2  0  0  0  0  0  0
   -1.9196    1.6458   -0.4305 H   0  0  0  0  0  0  0  0  0  0  0  0
   -3.9367   -0.0978   -0.6817 N   0  0  0  0  0  0  0  0  0  0  0  0
   -2.2152   -1.6165   -0.2596 N   0  0  0  0  0  0  0  0  0  0  0  0
   -2.6109   -0.2981   -0.4232 C   0  0  0  0  0  0  0  0  0  0  0  0
   -4.9165   -1.1821   -0.5769 C   0  0  0  0  0  0  0  0  0  0  0  0
   -4.3614   -2.1352   -0.5317 H   0  0  0  0  0  0  0  0  0  0  0  0
   -5.5362   -1.1763   -1.5028 H   0  0  0  0  0  0  0  0  0  0  0  0
   -4.5272    1.2325   -0.7590 C   0  0  0  0  0  0  0  0  0  0  0  0
   -5.1553    1.2767   -1.6781 H   0  0  0  0  0  0  0  0  0  0  0  0
   -3.7356    1.9942   -0.8845 H   0  0  0  0  0  0  0  0  0  0  0  0
   -5.3969    1.5149    0.4744 C   0  0  0  0  0  0  0  0  0  0  0  0
   -5.8728    2.5126    0.3748 H   0  0  0  0  0  0  0  0  0  0  0  0
   -4.7383    1.5555    1.3691 H   0  0  0  0  0  0  0  0  0  0  0  0
   -5.8101   -0.9780    0.6537 C   0  0  0  0  0  0  0  0  0  0  0  0
   -5.1857   -1.1041    1.5648 H   0  0  0  0  0  0  0  0  0  0  0  0
   -6.5860   -1.7711    0.6826 H   0  0  0  0  0  0  0  0  0  0  0  0
   -6.4545    0.4154    0.6485 C   0  0  0  0  0  0  0  0  0  0  0  0
   -7.1825    0.4778   -0.1920 H   0  0  0  0  0  0  0  0  0  0  0  0
   -7.0369    0.5815    1.5781 H   0  0  0  0  0  0  0  0  0  0  0  0
  2  1  1  0  0  0  0
  4  3  1  0  0  0  0
  5  8  1  0  0  0  0
  5  7  1  0  0  0  0
  6  2  1  0  0  0  0
  7  3  1  0  0  0  0
  7  6  2  0  0  0  0
  8  9  1  0  0  0  0
  8 17  1  0  0  0  0
 10  8  1  0  0  0  0
 11  5  1  0  0  0  0
 11 14  1  0  0  0  0
 12 11  1  0  0  0  0
 13 11  1  0  0  0  0
 14 20  1  0  0  0  0
 14 16  1  0  0  0  0
 15 14  1  0  0  0  0
 17 19  1  0  0  0  0
 17 18  1  0  0  0  0
 20 17  1  0  0  0  0
 20 22  1  0  0  0  0
 21 20  1  0  0  0  0
M  END
