4,5
 OpenBabel05122313053D

 31 32  0  0  1  0  0  0  0  0999 V2000
    1.1566   -4.4706    0.1638 O   0  0  0  0  0  1  0  0  0  0  0  0
    2.2259    4.5780   -1.1761 O   0  0  0  0  0  0  0  0  0  0  0  0
   -0.1744    0.6706   -1.5693 O   0  0  0  0  0  0  0  0  0  0  0  0
    1.5426   -3.3037    0.1268 N   0  0  0  0  0  2  0  0  0  0  0  0
    1.9331   -0.7265   -0.3490 N   0  0  0  0  0  2  0  0  0  0  0  0
    1.0356    2.6312   -1.3962 N   0  0  0  0  0  0  0  0  0  0  0  0
    3.3010    2.6201   -0.5981 N   0  0  0  0  0  0  0  0  0  0  0  0
    4.2788    0.6235    0.1478 N   0  0  0  0  0  0  0  0  0  0  0  0
    2.7975   -2.8686    0.2617 C   0  0  2  0  0  3  0  0  0  0  0  0
    2.0179    0.5729   -0.6375 C   0  0  2  0  0  3  0  0  0  0  0  0
    2.9974   -1.4247    0.1039 C   0  0  0  0  0  0  0  0  0  0  0  0
   -0.0647    3.4271   -1.9478 C   0  0  0  0  0  0  0  0  0  0  0  0
    0.2870    3.9926   -2.8305 H   0  0  0  0  0  0  0  0  0  0  0  0
   -0.4228    4.1598   -1.1981 H   0  0  0  0  0  0  0  0  0  0  0  0
   -0.8703    2.7291   -2.2298 H   0  0  0  0  0  0  0  0  0  0  0  0
    4.2150   -0.6908    0.3807 C   0  0  0  0  0  0  0  0  0  0  0  0
    0.8603    1.2572   -1.2423 C   0  0  0  0  0  0  0  0  0  0  0  0
    3.2198    1.2635   -0.3731 C   0  0  0  0  0  0  0  0  0  0  0  0
    5.4453   -1.2989    0.9901 C   0  0  0  0  0  0  0  0  0  0  0  0
    6.1121   -0.4809    1.3148 H   0  0  0  0  0  0  0  0  0  0  0  0
    6.0000   -1.9183    0.2562 H   0  0  0  0  0  0  0  0  0  0  0  0
    5.2073   -1.9442    1.8560 H   0  0  0  0  0  0  0  0  0  0  0  0
    3.8725   -3.9003    0.4585 C   0  0  0  0  0  0  0  0  0  0  0  0
    3.4850   -4.8870    0.1458 H   0  0  0  0  0  0  0  0  0  0  0  0
    4.1788   -3.9865    1.5213 H   0  0  0  0  0  0  0  0  0  0  0  0
    4.7715   -3.6706   -0.1405 H   0  0  0  0  0  0  0  0  0  0  0  0
    2.2000    3.3659   -1.0576 C   0  0  0  0  0  0  0  0  0  0  0  0
    4.5442    3.3343   -0.2893 C   0  0  0  0  0  0  0  0  0  0  0  0
    5.3769    2.9103   -0.8807 H   0  0  0  0  0  0  0  0  0  0  0  0
    4.7880    3.2268    0.7845 H   0  0  0  0  0  0  0  0  0  0  0  0
    4.3863    4.3953   -0.5439 H   0  0  0  0  0  0  0  0  0  0  0  0
  2 27  2  0  0  0  0
  3 17  2  0  0  0  0
  4  1  1  0  0  0  0
  5 11  1  0  0  0  0
  6 17  1  0  0  0  0
  6 27  1  0  0  0  0
  7 18  1  0  0  0  0
  7 28  1  0  0  0  0
  8 16  1  0  0  0  0
  9  4  1  6  0  0  0
  9 23  1  0  0  0  0
 10 17  1  6  0  0  0
 10 18  1  0  0  0  0
 10  5  1  0  0  0  0
 11  9  1  0  0  0  0
 11 16  2  0  0  0  0
 12  6  1  0  0  0  0
 12 14  1  0  0  0  0
 13 12  1  0  0  0  0
 15 12  1  0  0  0  0
 16 19  1  0  0  0  0
 18  8  2  0  0  0  0
 19 20  1  0  0  0  0
 19 22  1  0  0  0  0
 21 19  1  0  0  0  0
 23 25  1  0  0  0  0
 24 23  1  0  0  0  0
 26 23  1  0  0  0  0
 27  7  1  0  0  0  0
 28 30  1  0  0  0  0
 29 28  1  0  0  0  0
 31 28  1  0  0  0  0
M  END
