1,2
 OpenBabel05122313053D

 32 34  0  0  1  0  0  0  0  0999 V2000
   -1.8061    1.6028    0.2821 N   0  0  0  0  0  2  0  0  0  0  0  0
    0.1550   -0.2045    0.2918 N   0  0  0  0  0  2  0  0  0  0  0  0
    2.4793   -0.7752    0.3202 N   0  0  0  0  0  0  0  0  0  0  0  0
    1.8006    1.5114    0.0879 N   0  0  0  0  0  0  0  0  0  0  0  0
    0.8672   -2.3936    0.6366 N   0  0  0  0  0  0  0  0  0  0  0  0
    4.0195    0.9793   -0.0121 N   0  0  0  0  0  0  0  0  0  0  0  0
   -2.8364    2.4702    0.3647 C   0  0  0  0  0  3  0  0  0  0  0  0
   -2.6502    3.8561    0.3390 C   0  0  0  0  0  0  0  0  0  0  0  0
   -1.3483    4.3687    0.2222 C   0  0  0  0  0  0  0  0  0  0  0  0
   -0.2779    3.4727    0.1461 C   0  0  0  0  0  0  0  0  0  0  0  0
   -0.5424    2.0952    0.1776 C   0  0  0  0  0  0  0  0  0  0  0  0
    0.5445    1.0926    0.1615 C   0  0  0  0  0  0  0  0  0  0  0  0
    2.7408    0.5261    0.1347 C   0  0  0  0  0  0  0  0  0  0  0  0
    1.1788   -1.1078    0.4078 C   0  0  1  0  0  3  0  0  0  0  0  0
    5.2641    0.3285   -0.0260 C   0  0  0  0  0  0  0  0  0  0  0  0
    5.4286   -1.0651    0.1325 C   0  0  0  0  0  0  0  0  0  0  0  0
    6.7181   -1.6142    0.1038 C   0  0  0  0  0  0  0  0  0  0  0  0
    7.8505   -0.8064   -0.0799 C   0  0  0  0  0  0  0  0  0  0  0  0
    7.6844    0.5792   -0.2378 C   0  0  0  0  0  0  0  0  0  0  0  0
    6.4053    1.1435   -0.2114 C   0  0  0  0  0  0  0  0  0  0  0  0
   -0.1133   -2.6764    0.6645 H   0  0  0  0  0  0  0  0  0  0  0  0
    1.6158   -3.0827    0.6649 H   0  0  0  0  0  0  0  0  0  0  0  0
    4.0445    1.9935   -0.1425 H   0  0  0  0  0  0  0  0  0  0  0  0
   -3.8392    2.0259    0.4394 H   0  0  0  0  0  0  0  0  0  0  0  0
   -3.5243    4.5192    0.4035 H   0  0  0  0  0  0  0  0  0  0  0  0
   -1.1724    5.4540    0.1928 H   0  0  0  0  0  0  0  0  0  0  0  0
    0.7682    3.7957    0.0623 H   0  0  0  0  0  0  0  0  0  0  0  0
    4.5421   -1.6924    0.2748 H   0  0  0  0  0  0  0  0  0  0  0  0
    6.8346   -2.7017    0.2277 H   0  0  0  0  0  0  0  0  0  0  0  0
    8.8559   -1.2518   -0.1011 H   0  0  0  0  0  0  0  0  0  0  0  0
    8.5592    1.2305   -0.3840 H   0  0  0  0  0  0  0  0  0  0  0  0
    6.2801    2.2312   -0.3367 H   0  0  0  0  0  0  0  0  0  0  0  0
  1  7  1  0  0  0  0
  2 14  1  0  0  0  0
  3 14  1  0  0  0  0
  4 13  1  0  0  0  0
  4 12  2  0  0  0  0
  5 21  1  0  0  0  0
  5 22  1  0  0  0  0
  6 13  1  0  0  0  0
  7 24  1  0  0  0  0
  8  7  1  0  0  0  0
  8 25  1  0  0  0  0
  9  8  2  0  0  0  0
 10 11  2  0  0  0  0
 10  9  1  0  0  0  0
 11  1  1  0  0  0  0
 12 11  1  0  0  0  0
 12  2  1  0  0  0  0
 13  3  2  0  0  0  0
 14  5  1  1  0  0  0
 15  6  1  0  0  0  0
 15 16  1  0  0  0  0
 16 28  1  0  0  0  0
 17 16  2  0  0  0  0
 17 29  1  0  0  0  0
 18 17  1  0  0  0  0
 19 20  1  0  0  0  0
 19 18  2  0  0  0  0
 20 15  2  0  0  0  0
 23  6  1  0  0  0  0
 26  9  1  0  0  0  0
 27 10  1  0  0  0  0
 30 18  1  0  0  0  0
 31 19  1  0  0  0  0
 32 20  1  0  0  0  0
M  END
