2,5
 OpenBabel05122313053D

 16 17  0  0  0  0  0  0  0  0999 V2000
   -2.2991   -3.7296   -0.0127 S   0  0  0  0  0  0  0  0  0  0  0  0
   -0.7255   -1.7822    0.2491 N   0  0  0  0  0  2  0  0  0  0  0  0
   -2.0159   -2.0507    0.2752 C   0  0  0  0  0  3  0  0  0  0  0  0
   -2.7999   -1.3027    0.4548 H   0  0  0  0  0  0  0  0  0  0  0  0
    1.9254   -1.5807    0.3448 N   0  0  0  0  0  2  0  0  0  0  0  0
    3.2207   -1.4336    0.6895 C   0  0  0  0  0  3  0  0  0  0  0  0
    3.5403   -0.4185    0.9552 H   0  0  0  0  0  0  0  0  0  0  0  0
    2.2955   -3.9669    0.1068 C   0  0  0  0  0  0  0  0  0  0  0  0
    1.8531   -4.9522   -0.0943 H   0  0  0  0  0  0  0  0  0  0  0  0
   -0.0027   -2.9455    0.0245 C   0  0  0  0  0  0  0  0  0  0  0  0
    1.4587   -2.8431    0.1185 C   0  0  0  0  0  0  0  0  0  0  0  0
    4.1166   -2.5095    0.7116 C   0  0  0  0  0  0  0  0  0  0  0  0
    5.1655   -2.3268    0.9841 H   0  0  0  0  0  0  0  0  0  0  0  0
    3.6567   -3.7936    0.3848 C   0  0  0  0  0  0  0  0  0  0  0  0
    4.3422   -4.6537    0.3780 H   0  0  0  0  0  0  0  0  0  0  0  0
   -0.6615   -4.0763   -0.1469 N   0  0  0  0  0  0  0  0  0  0  0  0
  1  3  1  0  0  0  0
  2  3  1  0  0  0  0
  3  4  1  0  0  0  0
  5  6  1  0  0  0  0
  6 12  1  0  0  0  0
  6  7  1  0  0  0  0
  8 11  2  0  0  0  0
  8 14  1  0  0  0  0
  9  8  1  0  0  0  0
 10 11  1  0  0  0  0
 10  2  1  0  0  0  0
 11  5  1  0  0  0  0
 12 13  1  0  0  0  0
 14 12  2  0  0  0  0
 15 14  1  0  0  0  0
 16  1  1  0  0  0  0
 16 10  2  0  0  0  0
M  END
