1,2
 OpenBabel05122313053D

 36 37  0  0  1  0  0  0  0  0999 V2000
    1.5865    1.5621   -0.1067 N   0  0  0  0  0  2  0  0  0  0  0  0
   -0.8426    1.4142    0.0405 N   0  0  0  0  0  2  0  0  0  0  0  0
   -0.3230    2.6497    0.0882 C   0  0  1  0  0  3  0  0  0  0  0  0
    1.0317    2.7474   -0.0123 N   0  0  0  0  0  2  0  0  0  0  0  0
   -2.2380    1.1410    0.0373 C   0  0  0  0  0  0  0  0  0  0  0  0
   -4.2191    0.4168   -1.1809 C   0  0  0  0  0  0  0  0  0  0  0  0
   -4.6881    0.1481   -2.1366 H   0  0  0  0  0  0  0  0  0  0  0  0
   -1.1151    3.9225    0.1455 C   0  0  0  0  0  0  0  0  0  0  0  0
   -2.8621    0.7782   -1.1666 C   0  0  0  0  0  0  0  0  0  0  0  0
   -2.2640    0.7576   -2.0886 H   0  0  0  0  0  0  0  0  0  0  0  0
   -2.3407    3.9149    0.1473 O   0  0  0  0  0  0  0  0  0  0  0  0
    2.9884    1.6006   -0.3603 C   0  0  0  0  0  0  0  0  0  0  0  0
   -4.9538    0.3948    0.0233 C   0  0  0  0  0  0  0  0  0  0  0  0
   -4.3072    0.7257    1.2376 C   0  0  0  0  0  0  0  0  0  0  0  0
   -4.8930    0.6868    2.1672 H   0  0  0  0  0  0  0  0  0  0  0  0
   -0.3061    5.2024    0.1970 C   0  0  0  0  0  0  0  0  0  0  0  0
   -0.9990    6.0616    0.2369 H   0  0  0  0  0  0  0  0  0  0  0  0
    0.3600    5.2771   -0.6853 H   0  0  0  0  0  0  0  0  0  0  0  0
    0.3619    5.2030    1.0819 H   0  0  0  0  0  0  0  0  0  0  0  0
   -2.9627    1.0999    1.2463 C   0  0  0  0  0  0  0  0  0  0  0  0
   -2.4468    1.3413    2.1859 H   0  0  0  0  0  0  0  0  0  0  0  0
    4.9006    0.8105   -1.6212 C   0  0  0  0  0  0  0  0  0  0  0  0
    5.3193    0.1854   -2.4245 H   0  0  0  0  0  0  0  0  0  0  0  0
    3.5208    0.7841   -1.3778 C   0  0  0  0  0  0  0  0  0  0  0  0
    2.8308    0.1553   -1.9631 H   0  0  0  0  0  0  0  0  0  0  0  0
    5.2036    2.4352    0.1647 C   0  0  0  0  0  0  0  0  0  0  0  0
    5.8628    3.0729    0.7730 H   0  0  0  0  0  0  0  0  0  0  0  0
    3.8231    2.4385    0.4048 C   0  0  0  0  0  0  0  0  0  0  0  0
    3.3728    3.0663    1.1858 H   0  0  0  0  0  0  0  0  0  0  0  0
    5.7457    1.6244   -0.8480 C   0  0  0  0  0  0  0  0  0  0  0  0
    6.8301    1.6304   -1.0358 H   0  0  0  0  0  0  0  0  0  0  0  0
   -6.2700    0.0592    0.1204 O   0  0  0  0  0  0  0  0  0  0  0  0
   -6.9688   -0.2616   -1.0667 C   0  0  0  0  0  0  0  0  0  0  0  0
   -8.0110   -0.4797   -0.7684 H   0  0  0  0  0  0  0  0  0  0  0  0
   -6.5431   -1.1586   -1.5717 H   0  0  0  0  0  0  0  0  0  0  0  0
   -6.9689    0.5845   -1.7902 H   0  0  0  0  0  0  0  0  0  0  0  0
  1  4  1  0  0  0  0
  2  3  1  0  0  0  0
  3  4  1  6  0  0  0
  3  8  1  0  0  0  0
  5  2  1  0  0  0  0
  5 20  1  0  0  0  0
  6  9  1  0  0  0  0
  6 13  2  0  0  0  0
  7  6  1  0  0  0  0
  8 11  2  0  0  0  0
  8 16  1  0  0  0  0
  9  5  2  0  0  0  0
 10  9  1  0  0  0  0
 12  1  1  0  0  0  0
 12 28  1  0  0  0  0
 13 32  1  0  0  0  0
 13 14  1  0  0  0  0
 14 20  2  0  0  0  0
 14 15  1  0  0  0  0
 16 17  1  0  0  0  0
 16 19  1  0  0  0  0
 18 16  1  0  0  0  0
 20 21  1  0  0  0  0
 22 24  1  0  0  0  0
 22 30  2  0  0  0  0
 23 22  1  0  0  0  0
 24 12  2  0  0  0  0
 25 24  1  0  0  0  0
 26 28  2  0  0  0  0
 26 27  1  0  0  0  0
 28 29  1  0  0  0  0
 30 26  1  0  0  0  0
 31 30  1  0  0  0  0
 33 34  1  0  0  0  0
 33 32  1  0  0  0  0
 35 33  1  0  0  0  0
 36 33  1  0  0  0  0
M  END
