5,7
 OpenBabel05122313053D

 46 50  0  0  1  0  0  0  0  0999 V2000
    6.4301    2.8115   -0.3386 Br  0  0  0  0  0  0  0  0  0  0  0  0
   -1.9976    4.8650    0.0803 O   0  0  0  0  0  0  0  0  0  0  0  0
    3.3268   -2.2889    0.5862 N   0  0  0  0  0  0  0  0  0  0  0  0
    3.3759   -3.0337    1.2799 H   0  0  0  0  0  0  0  0  0  0  0  0
   -0.4093   -1.3080   -1.0631 N   0  0  0  0  0  2  0  0  0  0  0  0
   -0.1483    0.9044   -1.5487 N   0  0  0  0  0  0  0  0  0  0  0  0
   -1.3603    1.1507   -0.9486 N   0  0  0  0  0  2  0  0  0  0  0  0
    5.4939    1.1898   -0.0105 C   0  0  0  0  0  0  0  0  0  0  0  0
    5.9326    0.3533    1.0483 C   0  0  0  0  0  0  0  0  0  0  0  0
    6.8014    0.6567    1.6484 H   0  0  0  0  0  0  0  0  0  0  0  0
    5.2748   -0.8483    1.3263 C   0  0  0  0  0  0  0  0  0  0  0  0
    5.6213   -1.4974    2.1437 H   0  0  0  0  0  0  0  0  0  0  0  0
    4.1686   -1.1919    0.5313 C   0  0  0  0  0  0  0  0  0  0  0  0
    2.3419   -2.1707   -0.3828 C   0  0  0  0  0  0  0  0  0  0  0  0
    1.2598   -3.1205   -0.5952 C   0  0  0  0  0  0  0  0  0  0  0  0
    1.4597   -4.5090   -0.3891 C   0  0  0  0  0  0  0  0  0  0  0  0
    2.4559   -4.8601   -0.0790 H   0  0  0  0  0  0  0  0  0  0  0  0
    0.4423   -5.4359   -0.6220 C   0  0  0  0  0  0  0  0  0  0  0  0
    0.6320   -6.5084   -0.4692 H   0  0  0  0  0  0  0  0  0  0  0  0
   -0.8119   -4.9935   -1.0841 C   0  0  0  0  0  0  0  0  0  0  0  0
   -1.6094   -5.7190   -1.3024 H   0  0  0  0  0  0  0  0  0  0  0  0
   -1.0486   -3.6296   -1.2705 C   0  0  0  0  0  0  0  0  0  0  0  0
   -2.0255   -3.2544   -1.6117 H   0  0  0  0  0  0  0  0  0  0  0  0
   -0.0357   -2.6788   -1.0165 C   0  0  0  0  0  0  0  0  0  0  0  0
    0.3166   -0.3702   -1.6267 C   0  0  1  0  0  3  0  0  0  0  0  0
   -1.7896    2.3886   -1.0033 C   0  0  0  0  0  3  0  0  0  0  0  0
   -1.0857    3.1489   -1.3981 H   0  0  0  0  0  0  0  0  0  0  0  0
   -3.0940    2.8743   -0.5997 C   0  0  0  0  0  0  0  0  0  0  0  0
   -4.2930    2.1449   -0.7981 C   0  0  0  0  0  0  0  0  0  0  0  0
   -4.2303    1.1462   -1.2594 H   0  0  0  0  0  0  0  0  0  0  0  0
   -5.5275    2.7038   -0.4608 C   0  0  0  0  0  0  0  0  0  0  0  0
   -6.4531    2.1387   -0.6430 H   0  0  0  0  0  0  0  0  0  0  0  0
   -5.5866    4.0041    0.0778 C   0  0  0  0  0  0  0  0  0  0  0  0
   -6.5572    4.4492    0.3430 H   0  0  0  0  0  0  0  0  0  0  0  0
   -4.4172    4.7519    0.2629 C   0  0  0  0  0  0  0  0  0  0  0  0
   -4.4659    5.7716    0.6773 H   0  0  0  0  0  0  0  0  0  0  0  0
   -3.1699    4.2007   -0.0807 C   0  0  0  0  0  0  0  0  0  0  0  0
    1.6694   -0.5981   -2.2419 C   0  0  0  0  0  0  0  0  0  0  0  0
    2.0308    0.3108   -2.7588 H   0  0  0  0  0  0  0  0  0  0  0  0
    1.5846   -1.4034   -3.0032 H   0  0  0  0  0  0  0  0  0  0  0  0
    2.5723   -1.0008   -1.1119 C   0  0  0  0  0  0  0  0  0  0  0  0
    3.7170   -0.3494   -0.5402 C   0  0  0  0  0  0  0  0  0  0  0  0
    4.4006    0.8561   -0.8138 C   0  0  0  0  0  0  0  0  0  0  0  0
    4.0905    1.5214   -1.6321 H   0  0  0  0  0  0  0  0  0  0  0  0
   -2.1780    5.7793    0.3719 H   0  0  0  0  0  0  0  0  0  0  0  0
    0.3209    1.6690   -2.0432 H   0  0  0  0  0  0  0  0  0  0  0  0
  1  8  1  0  0  0  0
  2 45  1  0  0  0  0
  3  4  1  0  0  0  0
  5 24  1  0  0  0  0
  6  7  1  0  0  0  0
  8  9  1  0  0  0  0
  9 11  2  0  0  0  0
  9 10  1  0  0  0  0
 11 12  1  0  0  0  0
 13  3  1  0  0  0  0
 13 11  1  0  0  0  0
 14  3  1  0  0  0  0
 15 16  1  0  0  0  0
 15 14  1  0  0  0  0
 16 17  1  0  0  0  0
 18 19  1  0  0  0  0
 18 16  2  0  0  0  0
 20 18  1  0  0  0  0
 21 20  1  0  0  0  0
 22 20  2  0  0  0  0
 22 24  1  0  0  0  0
 23 22  1  0  0  0  0
 24 15  2  0  0  0  0
 25  6  1  1  0  0  0
 25  5  1  0  0  0  0
 26  7  1  0  0  0  0
 26 28  1  0  0  0  0
 27 26  1  0  0  0  0
 28 37  1  0  0  0  0
 29 28  2  0  0  0  0
 29 31  1  0  0  0  0
 30 29  1  0  0  0  0
 31 33  2  0  0  0  0
 32 31  1  0  0  0  0
 33 35  1  0  0  0  0
 33 34  1  0  0  0  0
 35 36  1  0  0  0  0
 37  2  1  0  0  0  0
 37 35  2  0  0  0  0
 38 25  1  0  0  0  0
 38 41  1  0  0  0  0
 39 38  1  0  0  0  0
 40 38  1  0  0  0  0
 41 42  1  0  0  0  0
 41 14  2  0  0  0  0
 42 13  2  0  0  0  0
 43 42  1  0  0  0  0
 43  8  2  0  0  0  0
 44 43  1  0  0  0  0
 46  6  1  0  0  0  0
M  END
