24,29
 OpenBabel05122313053D

 29 30  0  0  0  0  0  0  0  0999 V2000
   -2.4770    3.9941   -0.4624 C   0  0  0  0  0  0  0  0  0  0  0  0
   -3.0173    4.9521   -0.4405 H   0  0  0  0  0  0  0  0  0  0  0  0
   -3.1091    2.8231   -0.9493 C   0  0  0  0  0  0  0  0  0  0  0  0
   -4.1435    2.8406   -1.3187 H   0  0  0  0  0  0  0  0  0  0  0  0
    3.5548    1.6000   -0.4724 C   0  0  0  0  0  0  0  0  0  0  0  0
    4.9112    1.3258   -0.2162 C   0  0  0  0  0  0  0  0  0  0  0  0
    5.6724    1.7099   -0.9135 H   0  0  0  0  0  0  0  0  0  0  0  0
    4.3264    0.1034    1.7963 C   0  0  0  0  0  0  0  0  0  0  0  0
    4.6285   -0.4681    2.6878 H   0  0  0  0  0  0  0  0  0  0  0  0
    2.9571    0.3474    1.5792 C   0  0  0  0  0  0  0  0  0  0  0  0
    2.5885    1.0823    0.4274 C   0  0  0  0  0  0  0  0  0  0  0  0
    1.9170   -0.1542    2.5447 C   0  0  0  0  0  0  0  0  0  0  0  0
    2.3887   -0.5539    3.4623 H   0  0  0  0  0  0  0  0  0  0  0  0
    1.3004   -0.9587    2.0944 H   0  0  0  0  0  0  0  0  0  0  0  0
    1.2173    0.6555    2.8325 H   0  0  0  0  0  0  0  0  0  0  0  0
    5.2974    0.5778    0.9047 C   0  0  0  0  0  0  0  0  0  0  0  0
    6.3625    0.3705    1.0885 H   0  0  0  0  0  0  0  0  0  0  0  0
    3.1323    2.4054   -1.6730 C   0  0  0  0  0  0  0  0  0  0  0  0
    3.9850    2.5860   -2.3547 H   0  0  0  0  0  0  0  0  0  0  0  0
    2.7124    3.3828   -1.3595 H   0  0  0  0  0  0  0  0  0  0  0  0
    2.3248    1.8951   -2.2370 H   0  0  0  0  0  0  0  0  0  0  0  0
   -1.1613    3.9180   -0.0291 C   0  0  0  0  0  0  0  0  0  0  0  0
   -0.6033    4.7889    0.3406 H   0  0  0  0  0  0  0  0  0  0  0  0
    1.2031    1.2777    0.1244 N   0  0  0  0  0  2  0  0  0  0  0  0
   -2.4055    1.6238   -0.9600 C   0  0  0  0  0  3  0  0  0  0  0  0
   -2.8666    0.7004   -1.3334 H   0  0  0  0  0  0  0  0  0  0  0  0
    0.8051    2.5348    0.3004 N   0  0  0  0  0  2  0  0  0  0  0  0
   -0.4862    2.6696   -0.0699 C   0  0  0  0  0  0  0  0  0  0  0  0
   -1.1307    1.5187   -0.5040 N   0  0  0  0  0  2  0  0  0  0  0  0
  1  2  1  0  0  0  0
  1 22  1  0  0  0  0
  3  1  2  0  0  0  0
  4  3  1  0  0  0  0
  5  6  2  0  0  0  0
  5 11  1  0  0  0  0
  6 16  1  0  0  0  0
  7  6  1  0  0  0  0
  8  9  1  0  0  0  0
 10  8  1  0  0  0  0
 10 12  1  0  0  0  0
 11 10  2  0  0  0  0
 12 15  1  0  0  0  0
 12 13  1  0  0  0  0
 14 12  1  0  0  0  0
 16 17  1  0  0  0  0
 16  8  2  0  0  0  0
 18 20  1  0  0  0  0
 18  5  1  0  0  0  0
 19 18  1  0  0  0  0
 21 18  1  0  0  0  0
 22 23  1  0  0  0  0
 24 27  1  0  0  0  0
 24 11  1  0  0  0  0
 25  3  1  0  0  0  0
 25 29  1  0  0  0  0
 26 25  1  0  0  0  0
 28 22  2  0  0  0  0
 28 27  1  0  0  0  0
 29 28  1  0  0  0  0
M  END
