3,5
 OpenBabel05122313053D

 23 24  0  0  0  0  0  0  0  0999 V2000
   -3.1489    2.3218   -1.7146 Cl  0  0  0  0  0  0  0  0  0  0  0  0
   -1.6385   -0.5538    2.6526 Cl  0  0  0  0  0  0  0  0  0  0  0  0
   -1.1670    1.1798    0.1944 N   0  0  0  0  0  2  0  0  0  0  0  0
   -0.7737    2.3914    0.5365 N   0  0  0  0  0  0  0  0  0  0  0  0
    1.0934    1.5538   -0.5728 N   0  0  0  0  0  2  0  0  0  0  0  0
    2.4288    3.9929   -0.3187 C   0  0  0  0  0  0  0  0  0  0  0  0
    2.9697    4.9452   -0.2144 H   0  0  0  0  0  0  0  0  0  0  0  0
   -4.2215   -0.2435    1.8749 C   0  0  0  0  0  0  0  0  0  0  0  0
   -4.4580   -0.8811    2.7374 H   0  0  0  0  0  0  0  0  0  0  0  0
   -2.8809    0.0769    1.6135 C   0  0  0  0  0  0  0  0  0  0  0  0
   -2.5231    0.8940    0.5191 C   0  0  0  0  0  0  0  0  0  0  0  0
    3.0084    2.9187   -1.0315 C   0  0  0  0  0  0  0  0  0  0  0  0
    3.9984    3.0099   -1.4985 H   0  0  0  0  0  0  0  0  0  0  0  0
   -5.2270    0.2532    1.0350 C   0  0  0  0  0  0  0  0  0  0  0  0
   -6.2790    0.0032    1.2367 H   0  0  0  0  0  0  0  0  0  0  0  0
    0.4887    2.6089    0.0789 C   0  0  0  0  0  0  0  0  0  0  0  0
    2.3038    1.7208   -1.1467 C   0  0  0  0  0  0  0  0  0  0  0  0
    2.6858    0.8611   -1.7150 H   0  0  0  0  0  0  0  0  0  0  0  0
   -3.5586    1.3735   -0.3172 C   0  0  0  0  0  0  0  0  0  0  0  0
    1.1595    3.8452    0.2319 C   0  0  0  0  0  0  0  0  0  0  0  0
    0.6448    4.6519    0.7703 H   0  0  0  0  0  0  0  0  0  0  0  0
   -4.9028    1.0614   -0.0628 C   0  0  0  0  0  0  0  0  0  0  0  0
   -5.6773    1.4505   -0.7376 H   0  0  0  0  0  0  0  0  0  0  0  0
  1 19  1  0  0  0  0
  3 11  1  0  0  0  0
  3  4  1  0  0  0  0
  5 16  1  0  0  0  0
  6  7  1  0  0  0  0
  6 20  2  0  0  0  0
  8  9  1  0  0  0  0
 10  8  1  0  0  0  0
 10  2  1  0  0  0  0
 11 10  2  0  0  0  0
 12  6  1  0  0  0  0
 13 12  1  0  0  0  0
 14 15  1  0  0  0  0
 14  8  2  0  0  0  0
 16 20  1  0  0  0  0
 16  4  2  0  0  0  0
 17 12  2  0  0  0  0
 17  5  1  0  0  0  0
 18 17  1  0  0  0  0
 19 22  2  0  0  0  0
 19 11  1  0  0  0  0
 20 21  1  0  0  0  0
 22 14  1  0  0  0  0
 23 22  1  0  0  0  0
M  END
