2,3
 OpenBabel05122313053D

 33 34  0  0  1  0  0  0  0  0999 V2000
    1.3560    0.9958   -1.5141 N   0  0  0  0  0  0  0  0  0  0  0  0
    0.2691    0.6372   -0.8223 N   0  0  0  0  0  2  0  0  0  0  0  0
   -2.0470    0.3683    0.4919 N   0  0  0  0  0  2  0  0  0  0  0  0
    1.3519    2.3369   -1.7698 C   0  0  0  0  0  3  0  0  0  0  0  0
    2.1740    2.8051   -2.3204 H   0  0  0  0  0  0  0  0  0  0  0  0
    0.1886    2.8666   -1.2167 C   0  0  0  0  0  0  0  0  0  0  0  0
   -0.1396    3.9095   -1.2451 H   0  0  0  0  0  0  0  0  0  0  0  0
   -0.4645    1.7547   -0.6283 C   0  0  0  0  0  0  0  0  0  0  0  0
   -1.7254    1.6265    0.1000 C   0  0  2  0  0  3  0  0  0  0  0  0
   -2.5646    2.7180    0.3916 C   0  0  0  0  0  0  0  0  0  0  0  0
   -2.2831    3.7287    0.0654 H   0  0  0  0  0  0  0  0  0  0  0  0
   -3.7500    2.4916    1.0989 C   0  0  0  0  0  0  0  0  0  0  0  0
   -4.4212    3.3302    1.3372 H   0  0  0  0  0  0  0  0  0  0  0  0
   -4.0693    1.1851    1.4988 C   0  0  0  0  0  0  0  0  0  0  0  0
   -4.9904    0.9637    2.0555 H   0  0  0  0  0  0  0  0  0  0  0  0
   -3.1846    0.1496    1.1730 C   0  0  0  0  0  0  0  0  0  0  0  0
   -3.3742   -0.8978    1.4553 H   0  0  0  0  0  0  0  0  0  0  0  0
    2.4264    0.0374   -1.7994 C   0  0  0  0  0  0  0  0  0  0  0  0
    3.0211    0.4804   -2.6233 H   0  0  0  0  0  0  0  0  0  0  0  0
    1.9472   -0.8906   -2.1651 H   0  0  0  0  0  0  0  0  0  0  0  0
    3.2945   -0.2587   -0.5736 C   0  0  0  0  0  0  0  0  0  0  0  0
    2.6526   -0.7288    0.1983 H   0  0  0  0  0  0  0  0  0  0  0  0
    4.0297   -1.0341   -0.8793 H   0  0  0  0  0  0  0  0  0  0  0  0
    4.0206    0.9609   -0.0017 C   0  0  0  0  0  0  0  0  0  0  0  0
    3.2711    1.7274    0.2992 H   0  0  0  0  0  0  0  0  0  0  0  0
    4.6381    1.4298   -0.8013 H   0  0  0  0  0  0  0  0  0  0  0  0
    4.9130    0.6446    1.2080 C   0  0  0  0  0  0  0  0  0  0  0  0
    5.5104    1.5499    1.4506 H   0  0  0  0  0  0  0  0  0  0  0  0
    5.6536   -0.1342    0.9180 H   0  0  0  0  0  0  0  0  0  0  0  0
    4.1491    0.1937    2.4554 C   0  0  0  0  0  0  0  0  0  0  0  0
    3.4095    0.9589    2.7706 H   0  0  0  0  0  0  0  0  0  0  0  0
    4.8386    0.0200    3.3059 H   0  0  0  0  0  0  0  0  0  0  0  0
    3.5830   -0.7442    2.2881 H   0  0  0  0  0  0  0  0  0  0  0  0
  1  2  1  0  0  0  0
  2  8  1  0  0  0  0
  3 16  1  0  0  0  0
  4  1  1  0  0  0  0
  4  6  1  0  0  0  0
  5  4  1  0  0  0  0
  6  8  2  0  0  0  0
  7  6  1  0  0  0  0
  9  8  1  1  0  0  0
  9 10  1  0  0  0  0
  9  3  1  0  0  0  0
 10 12  2  0  0  0  0
 11 10  1  0  0  0  0
 12 13  1  0  0  0  0
 12 14  1  0  0  0  0
 14 15  1  0  0  0  0
 16 17  1  0  0  0  0
 16 14  2  0  0  0  0
 18  1  1  0  0  0  0
 18 21  1  0  0  0  0
 19 18  1  0  0  0  0
 20 18  1  0  0  0  0
 21 24  1  0  0  0  0
 21 22  1  0  0  0  0
 23 21  1  0  0  0  0
 24 25  1  0  0  0  0
 24 27  1  0  0  0  0
 26 24  1  0  0  0  0
 27 28  1  0  0  0  0
 27 30  1  0  0  0  0
 29 27  1  0  0  0  0
 30 31  1  0  0  0  0
 30 32  1  0  0  0  0
 33 30  1  0  0  0  0
M  END
