1,2
 OpenBabel05122313053D

 29 30  0  0  0  0  0  0  0  0999 V2000
   -2.0144    0.5660    0.1212 N   0  0  0  0  0  2  0  0  0  0  0  0
    0.6277    0.8159    0.0942 N   0  0  0  0  0  2  0  0  0  0  0  0
    1.9661    0.8185    0.0562 N   0  0  0  0  0  0  0  0  0  0  0  0
   -3.3450    0.3756    0.2080 C   0  0  0  0  0  0  0  0  0  0  0  0
   -3.6509   -0.6810    0.2943 H   0  0  0  0  0  0  0  0  0  0  0  0
   -4.2465    1.4455    0.1653 C   0  0  0  0  0  0  0  0  0  0  0  0
   -5.3240    1.2460    0.2483 H   0  0  0  0  0  0  0  0  0  0  0  0
   -3.7522    2.7517    0.0103 C   0  0  0  0  0  0  0  0  0  0  0  0
   -4.4392    3.6097   -0.0363 H   0  0  0  0  0  0  0  0  0  0  0  0
   -2.3719    2.9482   -0.0878 C   0  0  0  0  0  0  0  0  0  0  0  0
   -1.9447    3.9532   -0.2156 H   0  0  0  0  0  0  0  0  0  0  0  0
   -1.5103    1.8332   -0.0206 C   0  0  0  0  0  0  0  0  0  0  0  0
   -0.0730    1.9327   -0.0533 C   0  0  0  0  0  0  0  0  0  0  0  0
    0.4071    2.9185   -0.1286 H   0  0  0  0  0  0  0  0  0  0  0  0
    2.6912    2.0031   -0.3883 C   0  0  0  0  0  0  0  0  0  0  0  0
    2.7524    2.7591    0.4362 H   0  0  0  0  0  0  0  0  0  0  0  0
    2.1219    2.4648   -1.2201 H   0  0  0  0  0  0  0  0  0  0  0  0
    4.0947    1.6180   -0.8732 C   0  0  0  0  0  0  0  0  0  0  0  0
    3.9883    1.0309   -1.8099 H   0  0  0  0  0  0  0  0  0  0  0  0
    4.6411    2.5481   -1.1320 H   0  0  0  0  0  0  0  0  0  0  0  0
    4.8586    0.7897    0.1631 C   0  0  0  0  0  0  0  0  0  0  0  0
    5.0635    1.4143    1.0620 H   0  0  0  0  0  0  0  0  0  0  0  0
    5.8457    0.4871   -0.2421 H   0  0  0  0  0  0  0  0  0  0  0  0
    4.0314   -0.4345    0.5646 C   0  0  0  0  0  0  0  0  0  0  0  0
    3.8988   -1.1232   -0.2962 H   0  0  0  0  0  0  0  0  0  0  0  0
    4.5310   -1.0113    1.3691 H   0  0  0  0  0  0  0  0  0  0  0  0
    2.6459   -0.0264    1.0489 C   0  0  0  0  0  0  0  0  0  0  0  0
    2.0103   -0.9161    1.2139 H   0  0  0  0  0  0  0  0  0  0  0  0
    2.7164    0.5580    2.0006 H   0  0  0  0  0  0  0  0  0  0  0  0
  1  4  1  0  0  0  0
  3  2  1  0  0  0  0
  3 27  1  0  0  0  0
  4  5  1  0  0  0  0
  6  4  2  0  0  0  0
  6  7  1  0  0  0  0
  8  6  1  0  0  0  0
  9  8  1  0  0  0  0
 10 12  1  0  0  0  0
 10  8  2  0  0  0  0
 11 10  1  0  0  0  0
 12  1  1  0  0  0  0
 13 12  2  0  0  0  0
 13  2  1  0  0  0  0
 14 13  1  0  0  0  0
 15  3  1  0  0  0  0
 15 16  1  0  0  0  0
 17 15  1  0  0  0  0
 18 15  1  0  0  0  0
 18 21  1  0  0  0  0
 19 18  1  0  0  0  0
 20 18  1  0  0  0  0
 21 24  1  0  0  0  0
 21 22  1  0  0  0  0
 23 21  1  0  0  0  0
 24 27  1  0  0  0  0
 24 26  1  0  0  0  0
 25 24  1  0  0  0  0
 27 28  1  0  0  0  0
 27 29  1  0  0  0  0
M  END
