1,3
 OpenBabel05122313053D

 17 18  0  0  1  0  0  0  0  0999 V2000
    1.5023    1.5739   -0.4182 N   0  0  0  0  0  2  0  0  0  0  0  0
    0.3799    2.3435   -0.3201 N   0  0  0  0  0  0  0  0  0  0  0  0
   -0.8147    0.3409   -0.2955 N   0  0  0  0  0  2  0  0  0  0  0  0
   -3.2402    1.7209   -0.0638 N   0  0  0  0  0  0  0  0  0  0  0  0
    2.5379    2.4189   -0.4544 C   0  0  0  0  0  3  0  0  0  0  0  0
    3.5571    2.0226   -0.5202 H   0  0  0  0  0  0  0  0  0  0  0  0
    2.0830    3.7609   -0.3838 C   0  0  0  0  0  0  0  0  0  0  0  0
    2.6892    4.6716   -0.3918 H   0  0  0  0  0  0  0  0  0  0  0  0
    0.7019    3.6804   -0.2970 C   0  0  0  0  0  0  0  0  0  0  0  0
   -0.0651    4.4564   -0.2215 H   0  0  0  0  0  0  0  0  0  0  0  0
   -0.8586    1.6989   -0.2426 C   0  0  2  0  0  3  0  0  0  0  0  0
   -2.0820    2.3810   -0.1274 C   0  0  0  0  0  0  0  0  0  0  0  0
   -2.1219    3.4814   -0.0813 H   0  0  0  0  0  0  0  0  0  0  0  0
   -3.1926    0.3923   -0.1114 C   0  0  0  0  0  0  0  0  0  0  0  0
   -1.9875   -0.3220   -0.2251 C   0  0  0  0  0  0  0  0  0  0  0  0
   -1.9513   -1.4192   -0.2529 H   0  0  0  0  0  0  0  0  0  0  0  0
   -4.8196   -0.5743   -0.0176 Br  0  0  0  0  0  0  0  0  0  0  0  0
  1  2  1  0  0  0  0
  2  9  1  0  0  0  0
  3 11  1  0  0  0  0
  3 15  1  0  0  0  0
  5  1  1  0  0  0  0
  5  7  1  0  0  0  0
  6  5  1  0  0  0  0
  7  9  2  0  0  0  0
  8  7  1  0  0  0  0
  9 10  1  0  0  0  0
 11  2  1  6  0  0  0
 11 12  1  0  0  0  0
 12 13  1  0  0  0  0
 12  4  2  0  0  0  0
 14  4  1  0  0  0  0
 14 17  1  0  0  0  0
 15 14  2  0  0  0  0
 16 15  1  0  0  0  0
M  END
