2,3
 OpenBabel05122313053D

 44 45  0  0  1  0  0  0  0  0999 V2000
   -1.8665    2.9682   -0.2839 O   0  0  0  0  0  0  0  0  0  0  0  0
   -1.4502    0.5460    0.8762 N   0  0  0  0  0  2  0  0  0  0  0  0
    1.4505    0.5454    0.8763 N   0  0  0  0  0  2  0  0  0  0  0  0
    1.2672    1.0556    2.1079 C   0  0  2  0  0  3  0  0  0  0  0  0
   -2.6934    0.8174    0.2369 C   0  0  0  0  0  0  0  0  0  0  0  0
   -1.2668    1.0560    2.1079 C   0  0  1  0  0  3  0  0  0  0  0  0
    1.8680    2.9680   -0.2829 O   0  0  0  0  0  0  0  0  0  0  0  0
    0.0002    1.0940    2.7376 C   0  0  0  0  0  3  0  0  0  0  0  0
    0.0003    1.4054    3.7898 H   0  0  0  0  0  0  0  0  0  0  0  0
    2.6938    0.8165    0.2369 C   0  0  0  0  0  0  0  0  0  0  0  0
   -4.1114    2.3509   -1.0448 C   0  0  0  0  0  0  0  0  0  0  0  0
   -4.2731    3.3179   -1.5393 H   0  0  0  0  0  0  0  0  0  0  0  0
   -4.9370    0.1388   -0.4565 C   0  0  0  0  0  0  0  0  0  0  0  0
   -5.7313   -0.6220   -0.4731 H   0  0  0  0  0  0  0  0  0  0  0  0
   -2.9004    2.0835   -0.3809 C   0  0  0  0  0  0  0  0  0  0  0  0
   -3.7264   -0.1313    0.2038 C   0  0  0  0  0  0  0  0  0  0  0  0
   -3.5500   -1.0900    0.7116 H   0  0  0  0  0  0  0  0  0  0  0  0
    2.9013    2.0827   -0.3806 C   0  0  0  0  0  0  0  0  0  0  0  0
    2.4402    1.6318    2.8634 C   0  0  0  0  0  0  0  0  0  0  0  0
    3.3019    0.9359    2.8426 H   0  0  0  0  0  0  0  0  0  0  0  0
    2.1688    1.8520    3.9112 H   0  0  0  0  0  0  0  0  0  0  0  0
    2.7735    2.5748    2.3839 H   0  0  0  0  0  0  0  0  0  0  0  0
   -2.4397    1.6324    2.8633 C   0  0  0  0  0  0  0  0  0  0  0  0
   -2.7736    2.5749    2.3833 H   0  0  0  0  0  0  0  0  0  0  0  0
   -2.1680    1.8533    3.9110 H   0  0  0  0  0  0  0  0  0  0  0  0
   -3.3012    0.9361    2.8433 H   0  0  0  0  0  0  0  0  0  0  0  0
   -5.1231    1.3757   -1.0854 C   0  0  0  0  0  0  0  0  0  0  0  0
   -6.0643    1.5986   -1.6105 H   0  0  0  0  0  0  0  0  0  0  0  0
    3.7263   -0.1327    0.2034 C   0  0  0  0  0  0  0  0  0  0  0  0
    3.5495   -1.0914    0.7111 H   0  0  0  0  0  0  0  0  0  0  0  0
    4.1123    2.3495   -1.0447 C   0  0  0  0  0  0  0  0  0  0  0  0
    4.2744    3.3166   -1.5391 H   0  0  0  0  0  0  0  0  0  0  0  0
    5.1235    1.3739   -1.0858 C   0  0  0  0  0  0  0  0  0  0  0  0
    6.0646    1.5963   -1.6110 H   0  0  0  0  0  0  0  0  0  0  0  0
    4.9369    0.1369   -0.4570 C   0  0  0  0  0  0  0  0  0  0  0  0
    5.7309   -0.6243   -0.4739 H   0  0  0  0  0  0  0  0  0  0  0  0
    2.0283    4.2451   -0.8653 C   0  0  0  0  0  0  0  0  0  0  0  0
    2.8920    4.7964   -0.4302 H   0  0  0  0  0  0  0  0  0  0  0  0
    1.1006    4.8059   -0.6481 H   0  0  0  0  0  0  0  0  0  0  0  0
    2.1639    4.1852   -1.9688 H   0  0  0  0  0  0  0  0  0  0  0  0
   -2.0261    4.2452   -0.8668 C   0  0  0  0  0  0  0  0  0  0  0  0
   -2.1623    4.1848   -1.9703 H   0  0  0  0  0  0  0  0  0  0  0  0
   -1.0979    4.8055   -0.6504 H   0  0  0  0  0  0  0  0  0  0  0  0
   -2.8893    4.7973   -0.4316 H   0  0  0  0  0  0  0  0  0  0  0  0
  4  3  1  6  0  0  0
  4  8  1  0  0  0  0
  4 19  1  0  0  0  0
  5  2  1  0  0  0  0
  6  2  1  6  0  0  0
  6  8  1  0  0  0  0
  6 23  1  0  0  0  0
  8  9  1  0  0  0  0
 10  3  1  0  0  0  0
 11 15  1  0  0  0  0
 12 11  1  0  0  0  0
 13 16  2  0  0  0  0
 14 13  1  0  0  0  0
 15  1  1  0  0  0  0
 15  5  2  0  0  0  0
 16  5  1  0  0  0  0
 16 17  1  0  0  0  0
 18  7  1  0  0  0  0
 18 10  2  0  0  0  0
 19 21  1  0  0  0  0
 20 19  1  0  0  0  0
 22 19  1  0  0  0  0
 23 25  1  0  0  0  0
 24 23  1  0  0  0  0
 26 23  1  0  0  0  0
 27 11  2  0  0  0  0
 27 13  1  0  0  0  0
 28 27  1  0  0  0  0
 29 10  1  0  0  0  0
 29 30  1  0  0  0  0
 31 18  1  0  0  0  0
 32 31  1  0  0  0  0
 33 31  2  0  0  0  0
 33 35  1  0  0  0  0
 34 33  1  0  0  0  0
 35 29  2  0  0  0  0
 36 35  1  0  0  0  0
 37 39  1  0  0  0  0
 37 38  1  0  0  0  0
 37  7  1  0  0  0  0
 40 37  1  0  0  0  0
 41 43  1  0  0  0  0
 41 44  1  0  0  0  0
 41  1  1  0  0  0  0
 42 41  1  0  0  0  0
M  END
