1,2
 OpenBabel05122313053D

 44 47  0  0  0  0  0  0  0  0999 V2000
   -1.3458    0.7910   -0.1902 N   0  0  0  0  0  2  0  0  0  0  0  0
    1.3453    0.7915   -0.1904 N   0  0  0  0  0  2  0  0  0  0  0  0
   -0.7330    1.9383   -0.1122 C   0  0  0  0  0  0  0  0  0  0  0  0
    0.7322    1.9385   -0.1121 C   0  0  0  0  0  0  0  0  0  0  0  0
    0.7024    4.2978   -0.0626 C   0  0  0  0  0  0  0  0  0  0  0  0
    1.4086    5.5060   -0.0462 C   0  0  0  0  0  0  0  0  0  0  0  0
    0.7017    6.7169   -0.0298 C   0  0  0  0  0  0  0  0  0  0  0  0
   -0.7040    6.7167   -0.0301 C   0  0  0  0  0  0  0  0  0  0  0  0
   -1.4105    5.5056   -0.0468 C   0  0  0  0  0  0  0  0  0  0  0  0
   -0.7039    4.2976   -0.0629 C   0  0  0  0  0  0  0  0  0  0  0  0
    2.7540    0.6573   -0.1835 C   0  0  0  0  0  0  0  0  0  0  0  0
    3.5665    1.2903    0.7788 C   0  0  0  0  0  0  0  0  0  0  0  0
    4.9369    1.0075    0.8274 C   0  0  0  0  0  0  0  0  0  0  0  0
    5.5362    0.1094   -0.0785 C   0  0  0  0  0  0  0  0  0  0  0  0
    4.7118   -0.4946   -1.0519 C   0  0  0  0  0  0  0  0  0  0  0  0
    3.3408   -0.2403   -1.1004 C   0  0  0  0  0  0  0  0  0  0  0  0
    7.0005   -0.2335    0.0073 C   0  0  0  0  0  0  0  0  0  0  0  0
   -2.7544    0.6563   -0.1836 C   0  0  0  0  0  0  0  0  0  0  0  0
   -3.5675    1.2898    0.7778 C   0  0  0  0  0  0  0  0  0  0  0  0
   -4.9379    1.0066    0.8261 C   0  0  0  0  0  0  0  0  0  0  0  0
   -5.5365    0.1077   -0.0794 C   0  0  0  0  0  0  0  0  0  0  0  0
   -4.7116   -0.4967   -1.0521 C   0  0  0  0  0  0  0  0  0  0  0  0
   -3.3406   -0.2421   -1.1001 C   0  0  0  0  0  0  0  0  0  0  0  0
   -7.0008   -0.2355    0.0061 C   0  0  0  0  0  0  0  0  0  0  0  0
   -1.4169    3.1163   -0.0745 O   0  0  0  0  0  0  0  0  0  0  0  0
    1.4157    3.1168   -0.0740 O   0  0  0  0  0  0  0  0  0  0  0  0
    2.5072    5.4701   -0.0493 H   0  0  0  0  0  0  0  0  0  0  0  0
    1.2551    7.6668   -0.0180 H   0  0  0  0  0  0  0  0  0  0  0  0
   -1.2577    7.6665   -0.0185 H   0  0  0  0  0  0  0  0  0  0  0  0
   -2.5091    5.4694   -0.0502 H   0  0  0  0  0  0  0  0  0  0  0  0
    3.1176    1.9736    1.5128 H   0  0  0  0  0  0  0  0  0  0  0  0
    5.5571    1.4884    1.6002 H   0  0  0  0  0  0  0  0  0  0  0  0
    5.1484   -1.2075   -1.7683 H   0  0  0  0  0  0  0  0  0  0  0  0
    2.6986   -0.7460   -1.8327 H   0  0  0  0  0  0  0  0  0  0  0  0
    7.4870   -0.1944   -0.9886 H   0  0  0  0  0  0  0  0  0  0  0  0
    7.5453    0.4512    0.6857 H   0  0  0  0  0  0  0  0  0  0  0  0
    7.1385   -1.2671    0.3908 H   0  0  0  0  0  0  0  0  0  0  0  0
   -3.1191    1.9738    1.5115 H   0  0  0  0  0  0  0  0  0  0  0  0
   -5.5585    1.4880    1.5984 H   0  0  0  0  0  0  0  0  0  0  0  0
   -5.1476   -1.2103   -1.7681 H   0  0  0  0  0  0  0  0  0  0  0  0
   -2.6980   -0.7481   -1.8318 H   0  0  0  0  0  0  0  0  0  0  0  0
   -7.1386   -1.2686    0.3911 H   0  0  0  0  0  0  0  0  0  0  0  0
   -7.4868   -0.1981   -0.9902 H   0  0  0  0  0  0  0  0  0  0  0  0
   -7.5462    0.4501    0.6832 H   0  0  0  0  0  0  0  0  0  0  0  0
  1 18  1  0  0  0  0
  1  3  1  0  0  0  0
  2 11  1  0  0  0  0
  2  4  1  0  0  0  0
  3  4  2  0  0  0  0
  3 25  1  0  0  0  0
  4 26  1  0  0  0  0
  5  6  1  0  0  0  0
  6  7  2  0  0  0  0
  7 28  1  0  0  0  0
  8  7  1  0  0  0  0
  8 29  1  0  0  0  0
  9  8  2  0  0  0  0
 10  5  2  0  0  0  0
 10  9  1  0  0  0  0
 11 12  1  0  0  0  0
 12 13  2  0  0  0  0
 12 31  1  0  0  0  0
 13 32  1  0  0  0  0
 14 17  1  0  0  0  0
 14 13  1  0  0  0  0
 15 14  2  0  0  0  0
 16 15  1  0  0  0  0
 16 11  2  0  0  0  0
 17 37  1  0  0  0  0
 17 36  1  0  0  0  0
 18 19  1  0  0  0  0
 19 20  2  0  0  0  0
 19 38  1  0  0  0  0
 20 39  1  0  0  0  0
 21 24  1  0  0  0  0
 21 20  1  0  0  0  0
 22 21  2  0  0  0  0
 23 22  1  0  0  0  0
 23 18  2  0  0  0  0
 24 42  1  0  0  0  0
 24 44  1  0  0  0  0
 25 10  1  0  0  0  0
 26  5  1  0  0  0  0
 27  6  1  0  0  0  0
 30  9  1  0  0  0  0
 33 15  1  0  0  0  0
 34 16  1  0  0  0  0
 35 17  1  0  0  0  0
 40 22  1  0  0  0  0
 41 23  1  0  0  0  0
 43 24  1  0  0  0  0
M  END
