1,2
 OpenBabel05122313053D

 32 32  0  0  0  0  0  0  0  0999 V2000
   -1.1606    0.0355    1.3534 N   0  0  0  0  0  2  0  0  0  0  0  0
   -1.1693    0.1050   -1.3465 N   0  0  0  0  0  2  0  0  0  0  0  0
   -2.0435   -0.8306    0.7092 C   0  0  0  0  0  0  0  0  0  0  0  0
   -2.0479   -0.7933   -0.7423 C   0  0  0  0  0  0  0  0  0  0  0  0
   -2.8756   -1.7077   -1.4450 C   0  0  0  0  0  0  0  0  0  0  0  0
   -3.7055   -2.5956   -0.7628 C   0  0  0  0  0  0  0  0  0  0  0  0
   -3.7014   -2.6316    0.6480 C   0  0  0  0  0  0  0  0  0  0  0  0
   -2.8672   -1.7794    1.3694 C   0  0  0  0  0  0  0  0  0  0  0  0
   -1.3542    0.3900    2.7456 C   0  0  0  0  0  0  0  0  0  0  0  0
   -2.6426    1.1865    3.0119 C   0  0  0  0  0  0  0  0  0  0  0  0
   -2.7084    2.5196    2.2685 C   0  0  0  0  0  0  0  0  0  0  0  0
   -1.3673    0.5253   -2.7197 C   0  0  0  0  0  0  0  0  0  0  0  0
   -2.6560    1.3341   -2.9439 C   0  0  0  0  0  0  0  0  0  0  0  0
   -2.7175    2.6316   -2.1396 C   0  0  0  0  0  0  0  0  0  0  0  0
   -2.8710   -1.6967   -2.5437 H   0  0  0  0  0  0  0  0  0  0  0  0
   -4.3635   -3.2714   -1.3294 H   0  0  0  0  0  0  0  0  0  0  0  0
   -4.3562   -3.3354    1.1833 H   0  0  0  0  0  0  0  0  0  0  0  0
   -2.8557   -1.8241    2.4672 H   0  0  0  0  0  0  0  0  0  0  0  0
   -0.4729    0.9838    3.0649 H   0  0  0  0  0  0  0  0  0  0  0  0
   -1.3446   -0.5271    3.3802 H   0  0  0  0  0  0  0  0  0  0  0  0
   -2.7209    1.3514    4.1083 H   0  0  0  0  0  0  0  0  0  0  0  0
   -3.5167    0.5608    2.7322 H   0  0  0  0  0  0  0  0  0  0  0  0
   -3.6736    3.0349    2.4437 H   0  0  0  0  0  0  0  0  0  0  0  0
   -2.5983    2.3681    1.1755 H   0  0  0  0  0  0  0  0  0  0  0  0
   -1.9013    3.2086    2.5960 H   0  0  0  0  0  0  0  0  0  0  0  0
   -1.3600   -0.3607   -3.3970 H   0  0  0  0  0  0  0  0  0  0  0  0
   -0.4867    1.1332   -3.0134 H   0  0  0  0  0  0  0  0  0  0  0  0
   -2.7382    1.5495   -4.0312 H   0  0  0  0  0  0  0  0  0  0  0  0
   -3.5296    0.6969   -2.6900 H   0  0  0  0  0  0  0  0  0  0  0  0
   -3.6825    3.1556   -2.2876 H   0  0  0  0  0  0  0  0  0  0  0  0
   -1.9105    3.3340   -2.4376 H   0  0  0  0  0  0  0  0  0  0  0  0
   -2.6041    2.4297   -1.0551 H   0  0  0  0  0  0  0  0  0  0  0  0
  1  9  1  0  0  0  0
  2  4  1  0  0  0  0
  3  1  1  0  0  0  0
  3  8  1  0  0  0  0
  4  3  2  0  0  0  0
  5  6  2  0  0  0  0
  5  4  1  0  0  0  0
  6  7  1  0  0  0  0
  7 17  1  0  0  0  0
  7  8  2  0  0  0  0
  8 18  1  0  0  0  0
  9 10  1  0  0  0  0
  9 19  1  0  0  0  0
  9 20  1  0  0  0  0
 10 21  1  0  0  0  0
 11 23  1  0  0  0  0
 11 25  1  0  0  0  0
 11 10  1  0  0  0  0
 12  2  1  0  0  0  0
 13 12  1  0  0  0  0
 13 29  1  0  0  0  0
 13 14  1  0  0  0  0
 14 32  1  0  0  0  0
 15  5  1  0  0  0  0
 16  6  1  0  0  0  0
 22 10  1  0  0  0  0
 24 11  1  0  0  0  0
 26 12  1  0  0  0  0
 27 12  1  0  0  0  0
 28 13  1  0  0  0  0
 30 14  1  0  0  0  0
 31 14  1  0  0  0  0
M  END
