2,3
 OpenBabel05122313053D

 47 48  0  0  1  0  0  0  0  0999 V2000
   -3.2751   -1.1054   -0.6341 Si  0  0  0  0  0  0  0  0  0  0  0  0
   -1.5160   -0.7685   -0.4287 N   0  0  0  0  0  2  0  0  0  0  0  0
    0.5579    0.0903   -0.6703 N   0  0  0  0  0  2  0  0  0  0  0  0
   -0.8546    0.3911   -1.0000 C   0  0  2  0  0  0  0  0  0  0  0  0
   -0.9563    0.4176   -2.1135 H   0  0  0  0  0  0  0  0  0  0  0  0
   -1.3154    1.7304   -0.4433 C   0  0  0  0  0  0  0  0  0  0  0  0
   -1.4668    1.9065    0.9469 C   0  0  0  0  0  0  0  0  0  0  0  0
   -1.2532    1.0652    1.6236 H   0  0  0  0  0  0  0  0  0  0  0  0
   -1.8715    3.1424    1.4600 C   0  0  0  0  0  0  0  0  0  0  0  0
   -1.9841    3.2642    2.5492 H   0  0  0  0  0  0  0  0  0  0  0  0
   -2.1391    4.2397    0.6099 C   0  0  0  0  0  0  0  0  0  0  0  0
   -1.9787    4.0542   -0.7760 C   0  0  0  0  0  0  0  0  0  0  0  0
   -2.1831    4.8924   -1.4609 H   0  0  0  0  0  0  0  0  0  0  0  0
   -1.5715    2.8153   -1.2973 C   0  0  0  0  0  0  0  0  0  0  0  0
   -1.4697    2.6857   -2.3870 H   0  0  0  0  0  0  0  0  0  0  0  0
   -2.5882    5.5605    1.1810 C   0  0  0  0  0  0  0  0  0  0  0  0
   -3.5658    5.4619    1.6982 H   0  0  0  0  0  0  0  0  0  0  0  0
   -2.6984    6.3317    0.3946 H   0  0  0  0  0  0  0  0  0  0  0  0
   -1.8667    5.9399    1.9341 H   0  0  0  0  0  0  0  0  0  0  0  0
    1.4940    0.9440   -0.9150 C   0  0  0  0  0  3  0  0  0  0  0  0
    1.2086    1.9233   -1.3596 H   0  0  0  0  0  0  0  0  0  0  0  0
    2.9132    0.7746   -0.6401 C   0  0  0  0  0  0  0  0  0  0  0  0
    3.7602    1.8928   -0.8244 C   0  0  0  0  0  0  0  0  0  0  0  0
    3.3288    2.8438   -1.1753 H   0  0  0  0  0  0  0  0  0  0  0  0
    5.1293    1.8055   -0.5572 C   0  0  0  0  0  0  0  0  0  0  0  0
    5.7720    2.6880   -0.7002 H   0  0  0  0  0  0  0  0  0  0  0  0
    5.7014    0.5974   -0.1074 C   0  0  0  0  0  0  0  0  0  0  0  0
    4.8528   -0.5221    0.0582 C   0  0  0  0  0  0  0  0  0  0  0  0
    5.2819   -1.4785    0.3960 H   0  0  0  0  0  0  0  0  0  0  0  0
    3.4848   -0.4445   -0.1984 C   0  0  0  0  0  0  0  0  0  0  0  0
    2.8511   -1.3329   -0.0825 H   0  0  0  0  0  0  0  0  0  0  0  0
    7.1722    0.4909    0.1936 C   0  0  0  0  0  0  0  0  0  0  0  0
    7.6331   -0.3570   -0.3539 H   0  0  0  0  0  0  0  0  0  0  0  0
    7.3408    0.2993    1.2744 H   0  0  0  0  0  0  0  0  0  0  0  0
    7.7175    1.4151   -0.0767 H   0  0  0  0  0  0  0  0  0  0  0  0
   -3.4846   -2.8249   -1.3739 C   0  0  0  0  0  0  0  0  0  0  0  0
   -2.9244   -2.9042   -2.3279 H   0  0  0  0  0  0  0  0  0  0  0  0
   -4.5560   -3.0247   -1.5833 H   0  0  0  0  0  0  0  0  0  0  0  0
   -3.1061   -3.6062   -0.6875 H   0  0  0  0  0  0  0  0  0  0  0  0
   -4.1231   -0.9214    1.0366 C   0  0  0  0  0  0  0  0  0  0  0  0
   -3.6652   -1.6065    1.7768 H   0  0  0  0  0  0  0  0  0  0  0  0
   -5.2046   -1.1572    0.9602 H   0  0  0  0  0  0  0  0  0  0  0  0
   -4.0177    0.1183    1.4076 H   0  0  0  0  0  0  0  0  0  0  0  0
   -3.9667    0.1630   -1.8577 C   0  0  0  0  0  0  0  0  0  0  0  0
   -3.9233    1.1966   -1.4626 H   0  0  0  0  0  0  0  0  0  0  0  0
   -5.0297   -0.0828   -2.0626 H   0  0  0  0  0  0  0  0  0  0  0  0
   -3.4291    0.1371   -2.8280 H   0  0  0  0  0  0  0  0  0  0  0  0
  1  2  1  0  0  0  0
  1 40  1  0  0  0  0
  4  5  1  6  0  0  0
  4  3  1  0  0  0  0
  4  6  1  0  0  0  0
  4  2  1  0  0  0  0
  6  7  1  0  0  0  0
  7  9  2  0  0  0  0
  7  8  1  0  0  0  0
  9 10  1  0  0  0  0
 11 16  1  0  0  0  0
 11  9  1  0  0  0  0
 12 11  2  0  0  0  0
 13 12  1  0  0  0  0
 14 12  1  0  0  0  0
 14  6  2  0  0  0  0
 15 14  1  0  0  0  0
 16 17  1  0  0  0  0
 16 19  1  0  0  0  0
 18 16  1  0  0  0  0
 20  3  1  0  0  0  0
 20 22  1  0  0  0  0
 21 20  1  0  0  0  0
 22 30  1  0  0  0  0
 23 22  2  0  0  0  0
 23 25  1  0  0  0  0
 24 23  1  0  0  0  0
 25 27  2  0  0  0  0
 26 25  1  0  0  0  0
 27 28  1  0  0  0  0
 27 32  1  0  0  0  0
 28 29  1  0  0  0  0
 30 31  1  0  0  0  0
 30 28  2  0  0  0  0
 32 34  1  0  0  0  0
 33 32  1  0  0  0  0
 35 32  1  0  0  0  0
 36 39  1  0  0  0  0
 36  1  1  0  0  0  0
 37 36  1  0  0  0  0
 38 36  1  0  0  0  0
 40 43  1  0  0  0  0
 40 41  1  0  0  0  0
 42 40  1  0  0  0  0
 44 45  1  0  0  0  0
 44  1  1  0  0  0  0
 46 44  1  0  0  0  0
 47 44  1  0  0  0  0
M  END
