36,40
 OpenBabel05122313053D

 40 42  0  0  1  0  0  0  0  0999 V2000
    3.2485    1.7019   -0.5257 C   0  0  0  0  0  3  0  0  0  0  0  0
    3.8970    0.8346   -0.3012 H   0  0  0  0  0  0  0  0  0  0  0  0
    3.7130    2.8721   -1.1398 C   0  0  0  0  0  0  0  0  0  0  0  0
    4.7658    2.9473   -1.4475 H   0  0  0  0  0  0  0  0  0  0  0  0
    2.8155    3.9291   -1.3381 C   0  0  0  0  0  0  0  0  0  0  0  0
    3.1444    4.8666   -1.8120 H   0  0  0  0  0  0  0  0  0  0  0  0
    1.4863    3.7742   -0.9208 C   0  0  0  0  0  0  0  0  0  0  0  0
    0.7527    4.5823   -1.0578 H   0  0  0  0  0  0  0  0  0  0  0  0
    1.0897    2.5699   -0.3156 C   0  0  0  0  0  0  0  0  0  0  0  0
   -0.3279    2.3456    0.1588 C   0  0  0  0  0  0  0  0  0  0  0  0
   -0.2982    1.9861    1.2172 H   0  0  0  0  0  0  0  0  0  0  0  0
   -0.9023    3.2866    0.1015 H   0  0  0  0  0  0  0  0  0  0  0  0
   -5.7506    0.4809   -0.2964 C   0  0  0  0  0  0  0  0  0  0  0  0
   -6.7294    0.5559   -0.8037 H   0  0  0  0  0  0  0  0  0  0  0  0
   -5.6499   -0.1339    0.9630 C   0  0  0  0  0  0  0  0  0  0  0  0
   -6.5440   -0.5455    1.4547 H   0  0  0  0  0  0  0  0  0  0  0  0
   -4.3851   -0.2115    1.5618 C   0  0  0  0  0  0  0  0  0  0  0  0
   -4.2500   -0.6926    2.5426 H   0  0  0  0  0  0  0  0  0  0  0  0
   -3.2761    0.3303    0.8945 C   0  0  0  0  0  0  0  0  0  0  0  0
   -2.2683    0.2650    1.3432 H   0  0  0  0  0  0  0  0  0  0  0  0
   -3.4943    0.9287   -0.3600 C   0  0  0  0  0  0  0  0  0  0  0  0
   -2.3697    1.5714   -1.1675 C   0  0  0  0  0  0  0  0  0  0  0  0
   -2.4377    1.2057   -2.2165 H   0  0  0  0  0  0  0  0  0  0  0  0
   -2.5373    2.6656   -1.2167 H   0  0  0  0  0  0  0  0  0  0  0  0
   -0.9645   -0.9054   -1.2453 C   0  0  0  0  0  0  0  0  0  0  0  0
   -1.9408   -0.9338   -1.7613 H   0  0  0  0  0  0  0  0  0  0  0  0
   -0.1780   -2.1292   -1.1582 C   0  0  1  0  0  3  0  0  0  0  0  0
   -0.5746   -3.3146   -1.8155 C   0  0  0  0  0  0  0  0  0  0  0  0
   -1.5041   -3.3224   -2.4038 H   0  0  0  0  0  0  0  0  0  0  0  0
    0.2271   -4.4548   -1.7098 C   0  0  0  0  0  0  0  0  0  0  0  0
   -0.0673   -5.3871   -2.2155 H   0  0  0  0  0  0  0  0  0  0  0  0
    1.4101   -4.3931   -0.9556 C   0  0  0  0  0  0  0  0  0  0  0  0
    2.0708   -5.2647   -0.8488 H   0  0  0  0  0  0  0  0  0  0  0  0
    1.7366   -3.1855   -0.3234 C   0  0  0  0  0  0  0  0  0  0  0  0
    2.6476   -3.0469    0.2874 H   0  0  0  0  0  0  0  0  0  0  0  0
    1.9705    1.5594   -0.1242 N   0  0  0  0  0  2  0  0  0  0  0  0
   -4.7006    0.9974   -0.9514 N   0  0  0  0  0  0  0  0  0  0  0  0
   -1.0335    1.3414   -0.6497 N   0  0  0  0  0  0  0  0  0  0  0  0
   -0.4639    0.1567   -0.6764 N   0  0  0  0  0  0  0  0  0  0  0  0
    0.9621   -2.0922   -0.4173 N   0  0  0  0  0  2  0  0  0  0  0  0
  1  2  1  0  0  0  0
  1 36  1  0  0  0  0
  3  1  1  0  0  0  0
  4  3  1  0  0  0  0
  5  3  2  0  0  0  0
  5  7  1  0  0  0  0
  6  5  1  0  0  0  0
  7  9  2  0  0  0  0
  8  7  1  0  0  0  0
  9 36  1  0  0  0  0
  9 10  1  0  0  0  0
 10 11  1  0  0  0  0
 12 10  1  0  0  0  0
 13 15  1  0  0  0  0
 14 13  1  0  0  0  0
 15 16  1  0  0  0  0
 15 17  2  0  0  0  0
 17 18  1  0  0  0  0
 19 20  1  0  0  0  0
 19 17  1  0  0  0  0
 21 19  2  0  0  0  0
 22 38  1  0  0  0  0
 22 21  1  0  0  0  0
 23 22  1  0  0  0  0
 24 22  1  0  0  0  0
 25 39  2  0  0  0  0
 26 25  1  0  0  0  0
 27 25  1  6  0  0  0
 27 40  1  0  0  0  0
 28 30  2  0  0  0  0
 28 27  1  0  0  0  0
 29 28  1  0  0  0  0
 30 32  1  0  0  0  0
 31 30  1  0  0  0  0
 32 33  1  0  0  0  0
 32 34  2  0  0  0  0
 34 35  1  0  0  0  0
 37 21  1  0  0  0  0
 37 13  2  0  0  0  0
 38 10  1  0  0  0  0
 39 38  1  0  0  0  0
 40 34  1  0  0  0  0
M  END
