4,5
 OpenBabel05122313053D

 43 45  0  0  0  0  0  0  0  0999 V2000
    2.3765    3.7306    0.2406 C   0  0  0  0  0  0  0  0  0  0  0  0
    3.1385    4.3768   -0.2410 H   0  0  0  0  0  0  0  0  0  0  0  0
    2.3576    4.0281    1.3145 H   0  0  0  0  0  0  0  0  0  0  0  0
    2.0903   -0.0601    0.0360 N   0  0  0  0  0  2  0  0  0  0  0  0
   -0.3721    0.5239    0.1670 N   0  0  0  0  0  2  0  0  0  0  0  0
   -2.4269    0.7313   -1.1317 C   0  0  0  0  0  0  0  0  0  0  0  0
   -2.5140    0.4266    1.3259 C   0  0  0  0  0  0  0  0  0  0  0  0
    1.8059    1.2856    0.1202 C   0  0  0  0  0  0  0  0  0  0  0  0
   -1.7838    0.6009    0.1258 C   0  0  0  0  0  0  0  0  0  0  0  0
    0.3988    1.5948    0.1704 C   0  0  0  0  0  0  0  0  0  0  0  0
   -3.8318    0.7263   -1.1512 C   0  0  0  0  0  0  0  0  0  0  0  0
   -4.3452    0.8252   -2.1217 H   0  0  0  0  0  0  0  0  0  0  0  0
   -3.9163    0.4318    1.2473 C   0  0  0  0  0  0  0  0  0  0  0  0
   -4.4969    0.2973    2.1745 H   0  0  0  0  0  0  0  0  0  0  0  0
    3.3851   -0.4806   -0.0153 C   0  0  0  0  0  0  0  0  0  0  0  0
   -4.5965    0.5848    0.0238 C   0  0  0  0  0  0  0  0  0  0  0  0
    2.8030    2.2841    0.1437 C   0  0  0  0  0  0  0  0  0  0  0  0
    4.1338    1.8554    0.0862 C   0  0  0  0  0  0  0  0  0  0  0  0
    4.9533    2.5907    0.0941 H   0  0  0  0  0  0  0  0  0  0  0  0
    3.6963   -1.9350   -0.1115 C   0  0  0  0  0  0  0  0  0  0  0  0
    3.2454   -2.4749    0.7479 H   0  0  0  0  0  0  0  0  0  0  0  0
    4.7884   -2.1002   -0.1429 H   0  0  0  0  0  0  0  0  0  0  0  0
    3.2106   -2.3530   -1.0189 H   0  0  0  0  0  0  0  0  0  0  0  0
   -1.6105    0.8374   -2.3940 C   0  0  0  0  0  0  0  0  0  0  0  0
   -0.8521    0.0260   -2.4543 H   0  0  0  0  0  0  0  0  0  0  0  0
   -1.0458    1.7939   -2.4389 H   0  0  0  0  0  0  0  0  0  0  0  0
   -2.2565    0.7907   -3.2911 H   0  0  0  0  0  0  0  0  0  0  0  0
    4.4133    0.4842    0.0147 C   0  0  0  0  0  0  0  0  0  0  0  0
    5.4522    0.1290   -0.0320 H   0  0  0  0  0  0  0  0  0  0  0  0
   -1.7815    0.2218    2.6244 C   0  0  0  0  0  0  0  0  0  0  0  0
   -1.0313   -0.5926    2.5325 H   0  0  0  0  0  0  0  0  0  0  0  0
   -2.4802   -0.0238    3.4464 H   0  0  0  0  0  0  0  0  0  0  0  0
   -1.2161    1.1315    2.9210 H   0  0  0  0  0  0  0  0  0  0  0  0
   -0.0615    3.0248    0.2333 C   0  0  0  0  0  0  0  0  0  0  0  0
   -0.2370    3.2927    1.3014 H   0  0  0  0  0  0  0  0  0  0  0  0
   -1.0451    3.1265   -0.2676 H   0  0  0  0  0  0  0  0  0  0  0  0
   -6.1035    0.6111   -0.0303 C   0  0  0  0  0  0  0  0  0  0  0  0
   -6.5529    0.1095    0.8491 H   0  0  0  0  0  0  0  0  0  0  0  0
   -6.4881    0.1160   -0.9444 H   0  0  0  0  0  0  0  0  0  0  0  0
   -6.4858    1.6548   -0.0437 H   0  0  0  0  0  0  0  0  0  0  0  0
    0.9900    3.9649   -0.3748 C   0  0  0  0  0  0  0  0  0  0  0  0
    0.6819    5.0199   -0.2328 H   0  0  0  0  0  0  0  0  0  0  0  0
    1.0436    3.7890   -1.4709 H   0  0  0  0  0  0  0  0  0  0  0  0
  1  3  1  0  0  0  0
  2  1  1  0  0  0  0
  4  8  1  0  0  0  0
  5 10  1  0  0  0  0
  6  9  1  0  0  0  0
  7 30  1  0  0  0  0
  8 17  1  0  0  0  0
  8 10  2  0  0  0  0
  9  5  1  0  0  0  0
  9  7  2  0  0  0  0
 10 34  1  0  0  0  0
 11  6  2  0  0  0  0
 11 16  1  0  0  0  0
 12 11  1  0  0  0  0
 13  7  1  0  0  0  0
 13 14  1  0  0  0  0
 15 28  2  0  0  0  0
 15  4  1  0  0  0  0
 16 13  2  0  0  0  0
 17  1  1  0  0  0  0
 18 19  1  0  0  0  0
 18 17  2  0  0  0  0
 20 15  1  0  0  0  0
 20 21  1  0  0  0  0
 22 20  1  0  0  0  0
 23 20  1  0  0  0  0
 24  6  1  0  0  0  0
 25 24  1  0  0  0  0
 26 24  1  0  0  0  0
 27 24  1  0  0  0  0
 28 18  1  0  0  0  0
 29 28  1  0  0  0  0
 30 33  1  0  0  0  0
 30 32  1  0  0  0  0
 31 30  1  0  0  0  0
 34 35  1  0  0  0  0
 36 34  1  0  0  0  0
 37 16  1  0  0  0  0
 37 38  1  0  0  0  0
 39 37  1  0  0  0  0
 40 37  1  0  0  0  0
 41 42  1  0  0  0  0
 41 34  1  0  0  0  0
 41  1  1  0  0  0  0
 43 41  1  0  0  0  0
M  END
