2,3
 OpenBabel05122313053D

 19 20  0  0  1  0  0  0  0  0999 V2000
    2.6712    2.2440    0.1137 O   0  0  0  0  0  0  0  0  0  0  0  0
    1.1752   -1.0403    0.1294 N   0  0  0  0  0  2  0  0  0  0  0  0
    0.5420    1.5209    0.3443 N   0  0  0  0  0  2  0  0  0  0  0  0
    1.4468   -2.3594    0.0704 C   0  0  0  0  0  3  0  0  0  0  0  0
    0.5762   -3.0310    0.0548 H   0  0  0  0  0  0  0  0  0  0  0  0
    2.7559   -2.8532    0.0160 C   0  0  0  0  0  0  0  0  0  0  0  0
    2.9200   -3.9386   -0.0377 H   0  0  0  0  0  0  0  0  0  0  0  0
    3.8335   -1.9524    0.0230 C   0  0  0  0  0  0  0  0  0  0  0  0
    4.8702   -2.3161   -0.0231 H   0  0  0  0  0  0  0  0  0  0  0  0
    3.5633   -0.5810    0.0881 C   0  0  0  0  0  0  0  0  0  0  0  0
    4.3609    0.1745    0.0965 H   0  0  0  0  0  0  0  0  0  0  0  0
    2.2252   -0.1649    0.1383 C   0  0  0  0  0  0  0  0  0  0  0  0
    1.8031    1.2279    0.2120 C   0  0  1  0  0  3  0  0  0  0  0  0
    1.8742    3.4614    0.2752 C   0  0  0  0  0  0  0  0  0  0  0  0
    2.1658    4.1631   -0.5280 H   0  0  0  0  0  0  0  0  0  0  0  0
    2.1332    3.9001    1.2608 H   0  0  0  0  0  0  0  0  0  0  0  0
    0.4096    2.9706    0.1927 C   0  0  0  0  0  0  0  0  0  0  0  0
   -0.2459    3.3957    0.9774 H   0  0  0  0  0  0  0  0  0  0  0  0
   -0.0575    3.1585   -0.7987 H   0  0  0  0  0  0  0  0  0  0  0  0
  1 13  1  0  0  0  0
  1 14  1  0  0  0  0
  2 12  1  0  0  0  0
  4  2  1  0  0  0  0
  5  4  1  0  0  0  0
  6  8  2  0  0  0  0
  6  4  1  0  0  0  0
  7  6  1  0  0  0  0
  8 10  1  0  0  0  0
  9  8  1  0  0  0  0
 10 11  1  0  0  0  0
 10 12  2  0  0  0  0
 13 12  1  6  0  0  0
 13  3  1  0  0  0  0
 14 16  1  0  0  0  0
 15 14  1  0  0  0  0
 17 14  1  0  0  0  0
 17  3  1  0  0  0  0
 17 18  1  0  0  0  0
 19 17  1  0  0  0  0
M  END
