2,3
 OpenBabel05122313053D

 34 36  0  0  1  0  0  0  0  0999 V2000
    2.4647   -1.1691   -0.6017 O   0  0  0  0  0  0  0  0  0  0  0  0
   -1.5194    0.5525   -0.1003 N   0  0  0  0  0  2  0  0  0  0  0  0
    1.1232    1.0702   -0.3227 N   0  0  0  0  0  2  0  0  0  0  0  0
   -1.1361    1.8247   -0.2782 C   0  0  0  0  0  0  0  0  0  0  0  0
   -2.0732    2.8957   -0.3535 C   0  0  0  0  0  0  0  0  0  0  0  0
   -1.7112    3.9241   -0.4979 H   0  0  0  0  0  0  0  0  0  0  0  0
   -3.4226    2.6144   -0.2382 C   0  0  0  0  0  0  0  0  0  0  0  0
   -4.1724    3.4193   -0.2873 H   0  0  0  0  0  0  0  0  0  0  0  0
   -3.8547    1.2712   -0.0536 C   0  0  0  0  0  0  0  0  0  0  0  0
   -2.8422    0.2406    0.0038 C   0  0  2  0  0  3  0  0  0  0  0  0
   -5.2230    0.9041    0.0773 C   0  0  0  0  0  0  0  0  0  0  0  0
   -5.9914    1.6914    0.0372 H   0  0  0  0  0  0  0  0  0  0  0  0
   -5.5755   -0.4262    0.2521 C   0  0  0  0  0  0  0  0  0  0  0  0
   -6.6351   -0.7051    0.3532 H   0  0  0  0  0  0  0  0  0  0  0  0
   -4.5754   -1.4370    0.2959 C   0  0  0  0  0  0  0  0  0  0  0  0
   -4.8735   -2.4886    0.4226 H   0  0  0  0  0  0  0  0  0  0  0  0
   -3.2317   -1.1204    0.1749 C   0  0  0  0  0  0  0  0  0  0  0  0
   -2.4487   -1.8946    0.1641 H   0  0  0  0  0  0  0  0  0  0  0  0
    0.3042    2.0754   -0.3616 C   0  0  0  0  0  3  0  0  0  0  0  0
    0.6391    3.1298   -0.4265 H   0  0  0  0  0  0  0  0  0  0  0  0
    2.5086    1.1534   -0.2437 C   0  0  0  0  0  0  0  0  0  0  0  0
    3.2152   -0.0912   -0.3192 C   0  0  0  0  0  0  0  0  0  0  0  0
    4.6090   -0.1195   -0.1226 C   0  0  0  0  0  0  0  0  0  0  0  0
    5.1470   -1.0758   -0.1500 H   0  0  0  0  0  0  0  0  0  0  0  0
    5.3042    1.0755    0.0956 C   0  0  0  0  0  0  0  0  0  0  0  0
    6.3946    1.0442    0.2403 H   0  0  0  0  0  0  0  0  0  0  0  0
    4.6260    2.3093    0.1393 C   0  0  0  0  0  0  0  0  0  0  0  0
    5.1816    3.2403    0.3220 H   0  0  0  0  0  0  0  0  0  0  0  0
    3.2399    2.3421   -0.0214 C   0  0  0  0  0  0  0  0  0  0  0  0
    2.7064    3.3001    0.0613 H   0  0  0  0  0  0  0  0  0  0  0  0
    2.9443   -2.4887   -0.3218 C   0  0  0  0  0  0  0  0  0  0  0  0
    3.8182   -2.7350   -0.9596 H   0  0  0  0  0  0  0  0  0  0  0  0
    2.0913   -3.1474   -0.5700 H   0  0  0  0  0  0  0  0  0  0  0  0
    3.1919   -2.5754    0.7555 H   0  0  0  0  0  0  0  0  0  0  0  0
  1 31  1  0  0  0  0
  1 22  1  0  0  0  0
  3 21  1  0  0  0  0
  4  2  1  0  0  0  0
  5  4  2  0  0  0  0
  5  7  1  0  0  0  0
  6  5  1  0  0  0  0
  7  9  2  0  0  0  0
  8  7  1  0  0  0  0
  9 10  1  0  0  0  0
  9 11  1  0  0  0  0
 10  2  1  1  0  0  0
 10 17  1  0  0  0  0
 11 13  2  0  0  0  0
 12 11  1  0  0  0  0
 13 15  1  0  0  0  0
 13 14  1  0  0  0  0
 15 16  1  0  0  0  0
 17 15  2  0  0  0  0
 18 17  1  0  0  0  0
 19  3  1  0  0  0  0
 19  4  1  0  0  0  0
 20 19  1  0  0  0  0
 21 29  1  0  0  0  0
 22 21  2  0  0  0  0
 22 23  1  0  0  0  0
 23 25  2  0  0  0  0
 24 23  1  0  0  0  0
 25 27  1  0  0  0  0
 25 26  1  0  0  0  0
 27 28  1  0  0  0  0
 29 30  1  0  0  0  0
 29 27  2  0  0  0  0
 31 34  1  0  0  0  0
 32 31  1  0  0  0  0
 33 31  1  0  0  0  0
M  END
