1,2
 OpenBabel05122313053D

 15 15  0  0  0  0  0  0  0  0999 V2000
   -1.6810    0.8333    0.0004 N   0  0  0  0  0  2  0  0  0  0  0  0
   -1.0067   -1.5746   -0.0006 N   0  0  0  0  0  2  0  0  0  0  0  0
   -2.2078    2.0803    0.0006 C   0  0  0  0  0  3  0  0  0  0  0  0
   -3.6229    2.0103   -0.0001 C   0  0  0  0  0  0  0  0  0  0  0  0
   -3.9653    0.6424   -0.0009 C   0  0  0  0  0  0  0  0  0  0  0  0
   -2.7408   -0.0657   -0.0005 C   0  0  0  0  0  0  0  0  0  0  0  0
   -2.3225   -1.4311   -0.0007 C   0  0  0  0  0  0  0  0  0  0  0  0
   -3.2780   -2.5859    0.0010 C   0  0  0  0  0  0  0  0  0  0  0  0
   -0.6465   -2.5343   -0.0007 H   0  0  0  0  0  0  0  0  0  0  0  0
   -1.5768    2.9793    0.0011 H   0  0  0  0  0  0  0  0  0  0  0  0
   -4.3091    2.8656   -0.0001 H   0  0  0  0  0  0  0  0  0  0  0  0
   -4.9727    0.2085   -0.0015 H   0  0  0  0  0  0  0  0  0  0  0  0
   -2.7487   -3.5582   -0.0149 H   0  0  0  0  0  0  0  0  0  0  0  0
   -3.9256   -2.5516    0.9013 H   0  0  0  0  0  0  0  0  0  0  0  0
   -3.9498   -2.5350   -0.8804 H   0  0  0  0  0  0  0  0  0  0  0  0
  1  3  1  0  0  0  0
  3 10  1  0  0  0  0
  4 11  1  0  0  0  0
  4  3  1  0  0  0  0
  5  6  1  0  0  0  0
  5  4  2  0  0  0  0
  6  1  1  0  0  0  0
  7  2  1  0  0  0  0
  7  6  2  0  0  0  0
  7  8  1  0  0  0  0
  8 14  1  0  0  0  0
  9  2  1  0  0  0  0
 12  5  1  0  0  0  0
 13  8  1  0  0  0  0
 15  8  1  0  0  0  0
M  END
