1,4
 OpenBabel05122313053D

 28 30  0  0  0  0  0  0  0  0999 V2000
    0.1191   -0.6180   -0.0002 N   0  0  0  0  0  2  0  0  0  0  0  0
    0.8231   -1.7454   -0.0003 N   0  0  0  0  0  0  0  0  0  0  0  0
    2.1109    0.7090   -0.0001 N   0  0  0  0  0  0  0  0  0  0  0  0
   -1.4203    1.4902    0.0000 N   0  0  0  0  0  2  0  0  0  0  0  0
    2.1477   -1.6605   -0.0003 C   0  0  0  0  0  0  0  0  0  0  0  0
    2.6652   -2.6316   -0.0004 H   0  0  0  0  0  0  0  0  0  0  0  0
    2.8486   -0.4203   -0.0001 C   0  0  0  0  0  0  0  0  0  0  0  0
    0.7895    0.5936   -0.0001 C   0  0  0  0  0  0  0  0  0  0  0  0
   -0.0799    1.7716   -0.0001 C   0  0  0  0  0  0  0  0  0  0  0  0
    0.4019    3.0886   -0.0001 C   0  0  0  0  0  0  0  0  0  0  0  0
    1.4894    3.2439   -0.0002 H   0  0  0  0  0  0  0  0  0  0  0  0
   -0.5147    4.1443   -0.0001 C   0  0  0  0  0  0  0  0  0  0  0  0
   -0.1665    5.1873   -0.0002 H   0  0  0  0  0  0  0  0  0  0  0  0
   -1.8890    3.8440    0.0000 C   0  0  0  0  0  0  0  0  0  0  0  0
   -2.6462    4.6410    0.0000 H   0  0  0  0  0  0  0  0  0  0  0  0
   -2.3094    2.5119    0.0001 C   0  0  0  0  0  0  0  0  0  0  0  0
   -3.3667    2.1972    0.0001 H   0  0  0  0  0  0  0  0  0  0  0  0
    4.3175   -0.3080   -0.0000 C   0  0  0  0  0  0  0  0  0  0  0  0
    4.9169    0.9742    0.0000 C   0  0  0  0  0  0  0  0  0  0  0  0
    4.2621    1.8564   -0.0001 H   0  0  0  0  0  0  0  0  0  0  0  0
    6.3082    1.1100    0.0001 C   0  0  0  0  0  0  0  0  0  0  0  0
    6.7594    2.1137    0.0001 H   0  0  0  0  0  0  0  0  0  0  0  0
    7.1295   -0.0305    0.0002 C   0  0  0  0  0  0  0  0  0  0  0  0
    8.2247    0.0765    0.0003 H   0  0  0  0  0  0  0  0  0  0  0  0
    6.5474   -1.3088    0.0002 C   0  0  0  0  0  0  0  0  0  0  0  0
    7.1846   -2.2056    0.0003 H   0  0  0  0  0  0  0  0  0  0  0  0
    5.1549   -1.4493    0.0001 C   0  0  0  0  0  0  0  0  0  0  0  0
    4.7246   -2.4605    0.0001 H   0  0  0  0  0  0  0  0  0  0  0  0
  1  8  1  0  0  0  0
  2  5  2  0  0  0  0
  2  1  1  0  0  0  0
  4 16  1  0  0  0  0
  5  7  1  0  0  0  0
  6  5  1  0  0  0  0
  7  3  2  0  0  0  0
  7 18  1  0  0  0  0
  8  3  1  0  0  0  0
  8  9  2  0  0  0  0
  9  4  1  0  0  0  0
 10 12  2  0  0  0  0
 10  9  1  0  0  0  0
 11 10  1  0  0  0  0
 12 14  1  0  0  0  0
 13 12  1  0  0  0  0
 14 15  1  0  0  0  0
 14 16  2  0  0  0  0
 16 17  1  0  0  0  0
 18 19  2  0  0  0  0
 18 27  1  0  0  0  0
 19 21  1  0  0  0  0
 20 19  1  0  0  0  0
 21 22  1  0  0  0  0
 21 23  2  0  0  0  0
 23 24  1  0  0  0  0
 25 23  1  0  0  0  0
 25 26  1  0  0  0  0
 27 25  2  0  0  0  0
 28 27  1  0  0  0  0
M  END
