5,6
 OpenBabel05122313053D

 49 50  0  0  1  0  0  0  0  0999 V2000
    0.2670    2.2803    0.2587 P   0  0  0  0  0  0  0  0  0  0  0  0
   -0.1033    3.6819   -0.1208 O   0  0  0  0  0  0  0  0  0  0  0  0
   -0.4744    1.6550    1.5591 O   0  0  0  0  0  0  0  0  0  0  0  0
    1.8117    1.8926    0.5671 O   0  0  0  0  0  0  0  0  0  0  0  0
   -2.1698    0.0695   -0.9271 N   0  0  0  0  0  2  0  0  0  0  0  0
    0.5082   -0.2435   -0.9149 N   0  0  0  0  0  0  0  0  0  0  0  0
    1.3055   -0.1680   -0.2546 H   0  0  0  0  0  0  0  0  0  0  0  0
   -3.5168    0.0058   -1.0777 C   0  0  0  0  0  3  0  0  0  0  0  0
   -3.9925   -0.8412   -0.5562 H   0  0  0  0  0  0  0  0  0  0  0  0
   -4.2148    0.9725   -1.8051 C   0  0  0  0  0  0  0  0  0  0  0  0
   -5.3069    0.8874   -1.8970 H   0  0  0  0  0  0  0  0  0  0  0  0
   -3.5136    2.0344   -2.3977 C   0  0  0  0  0  0  0  0  0  0  0  0
   -4.0430    2.8109   -2.9686 H   0  0  0  0  0  0  0  0  0  0  0  0
   -2.1207    2.0923   -2.2451 C   0  0  0  0  0  0  0  0  0  0  0  0
   -1.5288    2.9193   -2.6606 H   0  0  0  0  0  0  0  0  0  0  0  0
   -1.4728    1.0948   -1.5097 C   0  0  0  0  0  0  0  0  0  0  0  0
   -0.0006    1.1255   -1.1917 C   0  0  1  0  0  0  0  0  0  0  0  0
    0.5666    1.6137   -2.0130 H   0  0  0  0  0  0  0  0  0  0  0  0
    0.9963   -0.9800   -2.1165 C   0  0  0  0  0  0  0  0  0  0  0  0
    0.1979   -0.9511   -2.8840 H   0  0  0  0  0  0  0  0  0  0  0  0
    1.0975   -2.0339   -1.7941 H   0  0  0  0  0  0  0  0  0  0  0  0
    2.3266   -0.4419   -2.6594 C   0  0  0  0  0  0  0  0  0  0  0  0
    2.1913    0.5584   -3.1223 H   0  0  0  0  0  0  0  0  0  0  0  0
    2.6321   -1.1153   -3.4898 H   0  0  0  0  0  0  0  0  0  0  0  0
    3.4246   -0.3669   -1.6147 C   0  0  0  0  0  0  0  0  0  0  0  0
    3.7142   -1.4671   -0.7792 C   0  0  0  0  0  0  0  0  0  0  0  0
    3.1268   -2.3945   -0.8553 H   0  0  0  0  0  0  0  0  0  0  0  0
    4.7285   -1.3838    0.1863 C   0  0  0  0  0  0  0  0  0  0  0  0
    4.9321   -2.2505    0.8329 H   0  0  0  0  0  0  0  0  0  0  0  0
    5.4698   -0.2008    0.3361 C   0  0  0  0  0  0  0  0  0  0  0  0
    6.2645   -0.1378    1.0949 H   0  0  0  0  0  0  0  0  0  0  0  0
    5.1824    0.9037   -0.4807 C   0  0  0  0  0  0  0  0  0  0  0  0
    5.7505    1.8396   -0.3670 H   0  0  0  0  0  0  0  0  0  0  0  0
    4.1653    0.8190   -1.4432 C   0  0  0  0  0  0  0  0  0  0  0  0
    3.9351    1.6941   -2.0715 H   0  0  0  0  0  0  0  0  0  0  0  0
   -1.8638    1.9377    1.8784 C   0  0  0  0  0  0  0  0  0  0  0  0
   -2.3245    2.5132    1.0479 H   0  0  0  0  0  0  0  0  0  0  0  0
   -2.3586    0.9466    1.9465 H   0  0  0  0  0  0  0  0  0  0  0  0
   -1.9377    2.7094    3.1798 C   0  0  0  0  0  0  0  0  0  0  0  0
   -1.4424    2.1474    3.9962 H   0  0  0  0  0  0  0  0  0  0  0  0
   -2.9968    2.8699    3.4655 H   0  0  0  0  0  0  0  0  0  0  0  0
   -1.4490    3.6990    3.0789 H   0  0  0  0  0  0  0  0  0  0  0  0
    2.4030    1.9131    1.8997 C   0  0  0  0  0  0  0  0  0  0  0  0
    3.4370    2.2794    1.7410 H   0  0  0  0  0  0  0  0  0  0  0  0
    1.8637    2.6534    2.5265 H   0  0  0  0  0  0  0  0  0  0  0  0
    2.3859    0.5307    2.5185 C   0  0  0  0  0  0  0  0  0  0  0  0
    2.9382   -0.1930    1.8883 H   0  0  0  0  0  0  0  0  0  0  0  0
    1.3512    0.1592    2.6457 H   0  0  0  0  0  0  0  0  0  0  0  0
    2.8757    0.5619    3.5132 H   0  0  0  0  0  0  0  0  0  0  0  0
  1  4  1  0  0  0  0
  1  3  1  0  0  0  0
  2  1  2  0  0  0  0
  3 36  1  0  0  0  0
  4 43  1  0  0  0  0
  6  7  1  0  0  0  0
  8  5  1  0  0  0  0
  8  9  1  0  0  0  0
 10  8  1  0  0  0  0
 11 10  1  0  0  0  0
 12 14  1  0  0  0  0
 12 10  2  0  0  0  0
 13 12  1  0  0  0  0
 14 16  2  0  0  0  0
 15 14  1  0  0  0  0
 16 17  1  0  0  0  0
 16  5  1  0  0  0  0
 17 18  1  6  0  0  0
 17  6  1  0  0  0  0
 17  1  1  0  0  0  0
 19 21  1  0  0  0  0
 19  6  1  0  0  0  0
 20 19  1  0  0  0  0
 22 19  1  0  0  0  0
 22 25  1  0  0  0  0
 23 22  1  0  0  0  0
 24 22  1  0  0  0  0
 25 34  2  0  0  0  0
 25 26  1  0  0  0  0
 26 28  2  0  0  0  0
 27 26  1  0  0  0  0
 28 30  1  0  0  0  0
 28 29  1  0  0  0  0
 30 31  1  0  0  0  0
 32 33  1  0  0  0  0
 32 30  2  0  0  0  0
 34 32  1  0  0  0  0
 35 34  1  0  0  0  0
 36 38  1  0  0  0  0
 36 39  1  0  0  0  0
 37 36  1  0  0  0  0
 39 41  1  0  0  0  0
 39 40  1  0  0  0  0
 42 39  1  0  0  0  0
 43 46  1  0  0  0  0
 43 45  1  0  0  0  0
 44 43  1  0  0  0  0
 46 48  1  0  0  0  0
 46 49  1  0  0  0  0
 47 46  1  0  0  0  0
M  END
