1,13
 OpenBabel05122313053D

 33 35  0  0  0  0  0  0  0  0999 V2000
    0.3365   -0.5289   -0.1054 N   0  0  0  0  0  2  0  0  0  0  0  0
   -0.0636    1.8395   -0.1024 C   0  0  0  0  0  0  0  0  0  0  0  0
    0.8604    0.7112   -0.0444 C   0  0  0  0  0  0  0  0  0  0  0  0
    1.4005   -2.8266   -0.2219 C   0  0  0  0  0  0  0  0  0  0  0  0
    0.4393   -3.3605   -0.2617 H   0  0  0  0  0  0  0  0  0  0  0  0
    2.6070   -0.6742   -0.0670 C   0  0  0  0  0  0  0  0  0  0  0  0
    2.2418    0.6697    0.0168 N   0  0  0  0  0  0  0  0  0  0  0  0
    1.3923   -1.4208   -0.1326 C   0  0  0  0  0  0  0  0  0  0  0  0
    0.2461    3.1953   -0.3319 C   0  0  0  0  0  0  0  0  0  0  0  0
    1.2795    3.5099   -0.5179 H   0  0  0  0  0  0  0  0  0  0  0  0
    3.8527   -2.7149   -0.2017 C   0  0  0  0  0  0  0  0  0  0  0  0
    4.8143   -3.2481   -0.2426 H   0  0  0  0  0  0  0  0  0  0  0  0
   -1.3748    1.4396    0.0132 N   0  0  0  0  0  2  0  0  0  0  0  0
   -2.3632    2.3562   -0.0147 C   0  0  0  0  0  0  0  0  0  0  0  0
   -3.3765    1.9273    0.0914 H   0  0  0  0  0  0  0  0  0  0  0  0
    3.8584   -1.3192   -0.1088 C   0  0  0  0  0  0  0  0  0  0  0  0
    4.8052   -0.7651   -0.0872 H   0  0  0  0  0  0  0  0  0  0  0  0
    4.0017    2.1741   -0.8764 C   0  0  0  0  0  0  0  0  0  0  0  0
    3.3643    2.4223   -1.7481 H   0  0  0  0  0  0  0  0  0  0  0  0
    4.6762    1.3483   -1.1766 H   0  0  0  0  0  0  0  0  0  0  0  0
    4.6282    3.0564   -0.6392 H   0  0  0  0  0  0  0  0  0  0  0  0
    3.1505    1.7895    0.3373 C   0  0  0  0  0  0  0  0  0  0  0  0
    2.4853    2.6355    0.5860 H   0  0  0  0  0  0  0  0  0  0  0  0
   -2.1067    3.7207   -0.1842 C   0  0  0  0  0  0  0  0  0  0  0  0
   -2.9456    4.4306   -0.1968 H   0  0  0  0  0  0  0  0  0  0  0  0
    2.6453   -3.4562   -0.2520 C   0  0  0  0  0  0  0  0  0  0  0  0
    2.6927   -4.5529   -0.3234 H   0  0  0  0  0  0  0  0  0  0  0  0
   -0.7828    4.1437   -0.3676 C   0  0  0  0  0  0  0  0  0  0  0  0
   -0.5476    5.2027   -0.5489 H   0  0  0  0  0  0  0  0  0  0  0  0
    3.9675    1.5092    1.6045 C   0  0  0  0  0  0  0  0  0  0  0  0
    3.3057    1.2128    2.4414 H   0  0  0  0  0  0  0  0  0  0  0  0
    4.5061    2.4309    1.8997 H   0  0  0  0  0  0  0  0  0  0  0  0
    4.7193    0.7112    1.4619 H   0  0  0  0  0  0  0  0  0  0  0  0
  1  3  1  0  0  0  0
  2  3  2  0  0  0  0
  2 13  1  0  0  0  0
  3  7  1  0  0  0  0
  4  8  1  0  0  0  0
  5  4  1  0  0  0  0
  6  7  1  0  0  0  0
  7 22  1  0  0  0  0
  8  1  1  0  0  0  0
  8  6  2  0  0  0  0
  9  2  1  0  0  0  0
 10  9  1  0  0  0  0
 11 16  2  0  0  0  0
 12 11  1  0  0  0  0
 14 13  1  0  0  0  0
 14 15  1  0  0  0  0
 16 17  1  0  0  0  0
 16  6  1  0  0  0  0
 18 21  1  0  0  0  0
 18 22  1  0  0  0  0
 19 18  1  0  0  0  0
 20 18  1  0  0  0  0
 22 23  1  0  0  0  0
 22 30  1  0  0  0  0
 24 14  2  0  0  0  0
 25 24  1  0  0  0  0
 26  4  2  0  0  0  0
 26 11  1  0  0  0  0
 27 26  1  0  0  0  0
 28  9  2  0  0  0  0
 28 24  1  0  0  0  0
 29 28  1  0  0  0  0
 30 32  1  0  0  0  0
 30 31  1  0  0  0  0
 33 30  1  0  0  0  0
M  END
