5,6
 OpenBabel05122313053D

 54 53  0  0  0  0  0  0  0  0999 V2000
    0.0932    3.0777    0.3848 Si  0  0  0  0  0  0  0  0  0  0  0  0
   -3.4057   -1.0928   -0.0361 Si  0  0  0  0  0  0  0  0  0  0  0  0
    3.3517   -1.2026   -0.0386 Si  0  0  0  0  0  0  0  0  0  0  0  0
    0.0273    1.6362   -0.7447 N   0  0  0  0  0  0  0  0  0  0  0  0
   -1.8070   -0.5183   -0.5680 N   0  0  0  0  0  2  0  0  0  0  0  0
    1.7670   -0.5892   -0.5658 N   0  0  0  0  0  2  0  0  0  0  0  0
   -1.2239    1.6419   -1.5411 C   0  0  0  0  0  0  0  0  0  0  0  0
   -1.7383    0.2266   -1.8201 C   0  0  0  0  0  0  0  0  0  0  0  0
    1.2476    1.5661   -1.5862 C   0  0  0  0  0  0  0  0  0  0  0  0
    1.6939    0.1221   -1.8369 C   0  0  0  0  0  0  0  0  0  0  0  0
   -1.4202    3.1000    1.5052 C   0  0  0  0  0  0  0  0  0  0  0  0
    1.6771    3.0303    1.4037 C   0  0  0  0  0  0  0  0  0  0  0  0
    0.0936    4.6357   -0.6911 C   0  0  0  0  0  0  0  0  0  0  0  0
   -3.2404   -1.9859    1.6169 C   0  0  0  0  0  0  0  0  0  0  0  0
   -4.0969   -2.2755   -1.3369 C   0  0  0  0  0  0  0  0  0  0  0  0
   -4.5493    0.4066    0.1589 C   0  0  0  0  0  0  0  0  0  0  0  0
    3.1691   -2.0359    1.6436 C   0  0  0  0  0  0  0  0  0  0  0  0
    3.9847   -2.4471   -1.3106 C   0  0  0  0  0  0  0  0  0  0  0  0
    4.5530    0.2579    0.0961 C   0  0  0  0  0  0  0  0  0  0  0  0
   -1.0839    2.2067   -2.4922 H   0  0  0  0  0  0  0  0  0  0  0  0
   -2.0110    2.1644   -0.9604 H   0  0  0  0  0  0  0  0  0  0  0  0
   -2.7296    0.3025   -2.3253 H   0  0  0  0  0  0  0  0  0  0  0  0
   -1.0781   -0.2799   -2.5659 H   0  0  0  0  0  0  0  0  0  0  0  0
    2.0771    2.0743   -1.0541 H   0  0  0  0  0  0  0  0  0  0  0  0
    1.0933    2.1063   -2.5491 H   0  0  0  0  0  0  0  0  0  0  0  0
    0.9904   -0.3765   -2.5478 H   0  0  0  0  0  0  0  0  0  0  0  0
    2.6717    0.1383   -2.3727 H   0  0  0  0  0  0  0  0  0  0  0  0
   -1.3411    3.9806    2.1761 H   0  0  0  0  0  0  0  0  0  0  0  0
   -2.3700    3.1971    0.9430 H   0  0  0  0  0  0  0  0  0  0  0  0
   -1.4781    2.1926    2.1361 H   0  0  0  0  0  0  0  0  0  0  0  0
    1.6413    3.8600    2.1399 H   0  0  0  0  0  0  0  0  0  0  0  0
    1.7765    2.0815    1.9647 H   0  0  0  0  0  0  0  0  0  0  0  0
    2.5873    3.1730    0.7883 H   0  0  0  0  0  0  0  0  0  0  0  0
    0.1478    5.5412   -0.0521 H   0  0  0  0  0  0  0  0  0  0  0  0
    0.9641    4.6594   -1.3780 H   0  0  0  0  0  0  0  0  0  0  0  0
   -0.8285    4.7134   -1.3025 H   0  0  0  0  0  0  0  0  0  0  0  0
   -4.2379   -2.3776    1.9055 H   0  0  0  0  0  0  0  0  0  0  0  0
   -2.5512   -2.8513    1.5480 H   0  0  0  0  0  0  0  0  0  0  0  0
   -2.8939   -1.3175    2.4297 H   0  0  0  0  0  0  0  0  0  0  0  0
   -5.1039   -2.6423   -1.0490 H   0  0  0  0  0  0  0  0  0  0  0  0
   -4.1868   -1.7908   -2.3306 H   0  0  0  0  0  0  0  0  0  0  0  0
   -3.4230   -3.1503   -1.4404 H   0  0  0  0  0  0  0  0  0  0  0  0
   -5.5733    0.0928    0.4493 H   0  0  0  0  0  0  0  0  0  0  0  0
   -4.1638    1.0889    0.9443 H   0  0  0  0  0  0  0  0  0  0  0  0
   -4.6355    0.9840   -0.7849 H   0  0  0  0  0  0  0  0  0  0  0  0
    4.1539   -2.4515    1.9419 H   0  0  0  0  0  0  0  0  0  0  0  0
    2.8486   -1.3295    2.4346 H   0  0  0  0  0  0  0  0  0  0  0  0
    2.4506   -2.8793    1.6064 H   0  0  0  0  0  0  0  0  0  0  0  0
    4.9797   -2.8440   -1.0210 H   0  0  0  0  0  0  0  0  0  0  0  0
    3.2766   -3.2976   -1.3841 H   0  0  0  0  0  0  0  0  0  0  0  0
    4.0838   -1.9935   -2.3181 H   0  0  0  0  0  0  0  0  0  0  0  0
    5.5693   -0.0871    0.3783 H   0  0  0  0  0  0  0  0  0  0  0  0
    4.6445    0.8040   -0.8657 H   0  0  0  0  0  0  0  0  0  0  0  0
    4.2081    0.9772    0.8670 H   0  0  0  0  0  0  0  0  0  0  0  0
  1 12  1  0  0  0  0
  1 11  1  0  0  0  0
  2 16  1  0  0  0  0
  2 14  1  0  0  0  0
  3 19  1  0  0  0  0
  3 17  1  0  0  0  0
  4  1  1  0  0  0  0
  5  2  1  0  0  0  0
  6  3  1  0  0  0  0
  7 21  1  0  0  0  0
  7  4  1  0  0  0  0
  8  7  1  0  0  0  0
  8  5  1  0  0  0  0
  9 24  1  0  0  0  0
  9  4  1  0  0  0  0
 10  9  1  0  0  0  0
 10  6  1  0  0  0  0
 11 30  1  0  0  0  0
 11 28  1  0  0  0  0
 12 32  1  0  0  0  0
 12 31  1  0  0  0  0
 13 34  1  0  0  0  0
 13  1  1  0  0  0  0
 14 37  1  0  0  0  0
 14 39  1  0  0  0  0
 15 40  1  0  0  0  0
 15  2  1  0  0  0  0
 16 43  1  0  0  0  0
 16 44  1  0  0  0  0
 17 46  1  0  0  0  0
 17 47  1  0  0  0  0
 18 49  1  0  0  0  0
 18  3  1  0  0  0  0
 19 52  1  0  0  0  0
 19 54  1  0  0  0  0
 20  7  1  0  0  0  0
 22  8  1  0  0  0  0
 23  8  1  0  0  0  0
 25  9  1  0  0  0  0
 26 10  1  0  0  0  0
 27 10  1  0  0  0  0
 29 11  1  0  0  0  0
 33 12  1  0  0  0  0
 35 13  1  0  0  0  0
 36 13  1  0  0  0  0
 38 14  1  0  0  0  0
 41 15  1  0  0  0  0
 42 15  1  0  0  0  0
 45 16  1  0  0  0  0
 48 17  1  0  0  0  0
 50 18  1  0  0  0  0
 51 18  1  0  0  0  0
 53 19  1  0  0  0  0
M  END
