3,4
 OpenBabel05122313053D

 57 58  0  0  1  0  0  0  0  0999 V2000
    2.0375    2.6393    0.3446 O   0  0  0  0  0  0  0  0  0  0  0  0
   -2.4776    2.3362   -0.6492 O   0  0  0  0  0  0  0  0  0  0  0  0
    1.3775    0.5088    0.0591 N   0  0  0  0  0  2  0  0  0  0  0  0
   -1.4767    0.3704   -0.2050 N   0  0  0  0  0  2  0  0  0  0  0  0
    2.7570    0.4103    0.6080 C   0  0  1  0  0  0  0  0  0  0  0  0
    3.6979   -0.1677   -0.4797 C   0  0  0  0  0  0  0  0  0  0  0  0
    3.7565    0.6394   -1.7817 C   0  0  0  0  0  0  0  0  0  0  0  0
    5.0852   -0.5273    0.0674 C   0  0  0  0  0  0  0  0  0  0  0  0
    2.9638    1.8436    1.1913 C   0  0  0  0  0  0  0  0  0  0  0  0
    4.3299    2.5036    1.1073 C   0  0  0  0  0  0  0  0  0  0  0  0
    2.4056    1.9048    2.6168 C   0  0  0  0  0  0  0  0  0  0  0  0
    1.1194    1.7688   -0.1135 C   0  0  2  0  0  3  0  0  0  0  0  0
   -2.9197    0.1299    0.0659 C   0  0  1  0  0  0  0  0  0  0  0  0
   -3.1178   -0.1378    1.5795 C   0  0  0  0  0  0  0  0  0  0  0  0
   -2.5980    0.9714    2.5004 C   0  0  0  0  0  0  0  0  0  0  0  0
   -4.5397   -0.5966    1.9261 C   0  0  0  0  0  0  0  0  0  0  0  0
   -3.5853    1.3473   -0.6527 C   0  0  0  0  0  0  0  0  0  0  0  0
   -4.7909    2.0264   -0.0247 C   0  0  0  0  0  0  0  0  0  0  0  0
   -3.8436    0.9971   -2.1209 C   0  0  0  0  0  0  0  0  0  0  0  0
   -1.3451    1.6229   -0.5140 C   0  0  1  0  0  3  0  0  0  0  0  0
   -0.0689    2.3758   -0.8376 C   0  0  0  0  0  0  0  0  0  0  0  0
   -0.2280    3.8608   -0.4501 C   0  0  0  0  0  0  0  0  0  0  0  0
    0.1693    2.2502   -2.3706 C   0  0  0  0  0  0  0  0  0  0  0  0
    2.7426   -0.3198    1.4423 H   0  0  0  0  0  0  0  0  0  0  0  0
    3.2052   -1.1295   -0.7332 H   0  0  0  0  0  0  0  0  0  0  0  0
    2.7456    0.7814   -2.2106 H   0  0  0  0  0  0  0  0  0  0  0  0
    4.3532    0.0903   -2.5373 H   0  0  0  0  0  0  0  0  0  0  0  0
    4.2215    1.6380   -1.6581 H   0  0  0  0  0  0  0  0  0  0  0  0
    5.0082   -1.1018    1.0132 H   0  0  0  0  0  0  0  0  0  0  0  0
    5.7213    0.3598    0.2547 H   0  0  0  0  0  0  0  0  0  0  0  0
    5.6234   -1.1664   -0.6606 H   0  0  0  0  0  0  0  0  0  0  0  0
    5.0509    1.9742    1.7578 H   0  0  0  0  0  0  0  0  0  0  0  0
    4.2528    3.5494    1.4652 H   0  0  0  0  0  0  0  0  0  0  0  0
    4.7269    2.5168    0.0775 H   0  0  0  0  0  0  0  0  0  0  0  0
    3.0768    1.3564    3.3069 H   0  0  0  0  0  0  0  0  0  0  0  0
    1.4053    1.4307    2.6731 H   0  0  0  0  0  0  0  0  0  0  0  0
    2.3278    2.9549    2.9598 H   0  0  0  0  0  0  0  0  0  0  0  0
   -3.2170   -0.7978   -0.4619 H   0  0  0  0  0  0  0  0  0  0  0  0
   -2.4600   -1.0167    1.7490 H   0  0  0  0  0  0  0  0  0  0  0  0
   -1.5411    1.2153    2.2715 H   0  0  0  0  0  0  0  0  0  0  0  0
   -2.6310    0.6336    3.5554 H   0  0  0  0  0  0  0  0  0  0  0  0
   -3.1897    1.9066    2.4323 H   0  0  0  0  0  0  0  0  0  0  0  0
   -4.8853   -1.3896    1.2315 H   0  0  0  0  0  0  0  0  0  0  0  0
   -5.2791    0.2273    1.9051 H   0  0  0  0  0  0  0  0  0  0  0  0
   -4.5590   -1.0245    2.9483 H   0  0  0  0  0  0  0  0  0  0  0  0
   -5.6667    1.3513   -0.0471 H   0  0  0  0  0  0  0  0  0  0  0  0
   -5.0444    2.9330   -0.6090 H   0  0  0  0  0  0  0  0  0  0  0  0
   -4.6026    2.3281    1.0205 H   0  0  0  0  0  0  0  0  0  0  0  0
   -4.1146    1.9034   -2.6970 H   0  0  0  0  0  0  0  0  0  0  0  0
   -4.6763    0.2699   -2.1938 H   0  0  0  0  0  0  0  0  0  0  0  0
   -2.9474    0.5331   -2.5795 H   0  0  0  0  0  0  0  0  0  0  0  0
   -1.0864    4.2969   -0.9911 H   0  0  0  0  0  0  0  0  0  0  0  0
    0.6906    4.4156   -0.7124 H   0  0  0  0  0  0  0  0  0  0  0  0
   -0.4032    3.9775    0.6367 H   0  0  0  0  0  0  0  0  0  0  0  0
    1.0904    2.7961   -2.6528 H   0  0  0  0  0  0  0  0  0  0  0  0
   -0.6873    2.6941   -2.9143 H   0  0  0  0  0  0  0  0  0  0  0  0
    0.2729    1.1911   -2.6720 H   0  0  0  0  0  0  0  0  0  0  0  0
  1  9  1  0  0  0  0
  2 20  1  0  0  0  0
  3  5  1  0  0  0  0
  4 13  1  0  0  0  0
  5  9  1  0  0  0  0
  5 24  1  1  0  0  0
  6  8  1  0  0  0  0
  6  5  1  0  0  0  0
  7 28  1  0  0  0  0
  7  6  1  0  0  0  0
  8 30  1  0  0  0  0
  8 29  1  0  0  0  0
  9 11  1  0  0  0  0
 10  9  1  0  0  0  0
 10 33  1  0  0  0  0
 10 32  1  0  0  0  0
 11 36  1  0  0  0  0
 11 37  1  0  0  0  0
 11 35  1  0  0  0  0
 12 21  1  6  0  0  0
 12  3  1  0  0  0  0
 12  1  1  0  0  0  0
 13 38  1  6  0  0  0
 13 14  1  0  0  0  0
 14 39  1  0  0  0  0
 14 16  1  0  0  0  0
 14 15  1  0  0  0  0
 15 41  1  0  0  0  0
 16 45  1  0  0  0  0
 17  2  1  0  0  0  0
 17 18  1  0  0  0  0
 17 13  1  0  0  0  0
 18 48  1  0  0  0  0
 19 17  1  0  0  0  0
 20 21  1  6  0  0  0
 20  4  1  0  0  0  0
 21 22  1  0  0  0  0
 22 54  1  0  0  0  0
 23 21  1  0  0  0  0
 25  6  1  0  0  0  0
 26  7  1  0  0  0  0
 27  7  1  0  0  0  0
 31  8  1  0  0  0  0
 34 10  1  0  0  0  0
 40 15  1  0  0  0  0
 42 15  1  0  0  0  0
 43 16  1  0  0  0  0
 44 16  1  0  0  0  0
 46 18  1  0  0  0  0
 47 18  1  0  0  0  0
 49 19  1  0  0  0  0
 50 19  1  0  0  0  0
 51 19  1  0  0  0  0
 52 22  1  0  0  0  0
 53 22  1  0  0  0  0
 55 23  1  0  0  0  0
 56 23  1  0  0  0  0
 57 23  1  0  0  0  0
M  END
