1,2
 OpenBabel05122313053D

 39 40  0  0  1  0  0  0  0  0999 V2000
   -1.5624    0.6624   -0.5584 N   0  0  0  0  0  2  0  0  0  0  0  0
    1.2300    0.9859    0.1140 N   0  0  0  0  0  2  0  0  0  0  0  0
    1.7495    3.1768   -0.0969 O   0  0  0  0  0  0  0  0  0  0  0  0
   -2.4441    2.5927   -1.3384 O   0  0  0  0  0  0  0  0  0  0  0  0
    2.6035    2.7095    0.9855 C   0  0  0  0  0  0  0  0  0  0  0  0
   -3.6032    1.8187   -0.9144 C   0  0  0  0  0  0  0  0  0  0  0  0
    1.0018    2.1212   -0.4665 C   0  0  2  0  0  3  0  0  0  0  0  0
   -1.3689    1.8201   -1.1028 C   0  0  2  0  0  3  0  0  0  0  0  0
   -0.0347    2.3573   -1.5218 C   0  0  0  0  0  0  0  0  0  0  0  0
    2.3820    1.1740    1.0292 C   0  0  2  0  0  0  0  0  0  0  0  0
    3.6023    0.3298    0.5966 C   0  0  0  0  0  0  0  0  0  0  0  0
    4.0159    0.5980   -0.8530 C   0  0  0  0  0  0  0  0  0  0  0  0
    4.7595    0.5164    1.5840 C   0  0  0  0  0  0  0  0  0  0  0  0
   -3.0132    0.5232   -0.2922 C   0  0  2  0  0  0  0  0  0  0  0  0
   -3.3090    0.3177    1.2094 C   0  0  0  0  0  0  0  0  0  0  0  0
   -2.7237    1.4311    2.0815 C   0  0  0  0  0  0  0  0  0  0  0  0
   -4.8107    0.1173    1.4386 C   0  0  0  0  0  0  0  0  0  0  0  0
    3.6435    3.0050    0.7471 H   0  0  0  0  0  0  0  0  0  0  0  0
    2.2841    3.2280    1.9117 H   0  0  0  0  0  0  0  0  0  0  0  0
   -4.1753    2.4377   -0.1955 H   0  0  0  0  0  0  0  0  0  0  0  0
   -4.2300    1.6343   -1.8087 H   0  0  0  0  0  0  0  0  0  0  0  0
    0.2777    1.8223   -2.4490 H   0  0  0  0  0  0  0  0  0  0  0  0
   -0.1116    3.4348   -1.7485 H   0  0  0  0  0  0  0  0  0  0  0  0
    2.0723    0.8423    2.0417 H   0  0  0  0  0  0  0  0  0  0  0  0
    3.2680   -0.7252    0.6597 H   0  0  0  0  0  0  0  0  0  0  0  0
    4.8776   -0.0400   -1.1324 H   0  0  0  0  0  0  0  0  0  0  0  0
    4.3239    1.6533   -1.0163 H   0  0  0  0  0  0  0  0  0  0  0  0
    3.1900    0.3615   -1.5531 H   0  0  0  0  0  0  0  0  0  0  0  0
    4.4465    0.3009    2.6264 H   0  0  0  0  0  0  0  0  0  0  0  0
    5.1702    1.5488    1.5586 H   0  0  0  0  0  0  0  0  0  0  0  0
    5.5935   -0.1695    1.3364 H   0  0  0  0  0  0  0  0  0  0  0  0
   -3.3688   -0.3771   -0.8342 H   0  0  0  0  0  0  0  0  0  0  0  0
   -2.7932   -0.6289    1.4752 H   0  0  0  0  0  0  0  0  0  0  0  0
   -1.6307    1.5266    1.9236 H   0  0  0  0  0  0  0  0  0  0  0  0
   -2.8845    1.2068    3.1545 H   0  0  0  0  0  0  0  0  0  0  0  0
   -3.1945    2.4165    1.8765 H   0  0  0  0  0  0  0  0  0  0  0  0
   -5.0133   -0.1253    2.5006 H   0  0  0  0  0  0  0  0  0  0  0  0
   -5.2094   -0.7140    0.8219 H   0  0  0  0  0  0  0  0  0  0  0  0
   -5.3942    1.0319    1.1973 H   0  0  0  0  0  0  0  0  0  0  0  0
  1 14  1  0  0  0  0
  2 10  1  0  0  0  0
  3  5  1  0  0  0  0
  4  8  1  0  0  0  0
  4  6  1  0  0  0  0
  5 10  1  0  0  0  0
  5 19  1  0  0  0  0
  6 14  1  0  0  0  0
  6 20  1  0  0  0  0
  7  9  1  1  0  0  0
  7  3  1  0  0  0  0
  7  2  1  0  0  0  0
  8  9  1  6  0  0  0
  8  1  1  0  0  0  0
 10 24  1  1  0  0  0
 11 25  1  0  0  0  0
 11 10  1  0  0  0  0
 11 13  1  0  0  0  0
 12 11  1  0  0  0  0
 13 29  1  0  0  0  0
 14 32  1  6  0  0  0
 14 15  1  0  0  0  0
 15 17  1  0  0  0  0
 15 33  1  0  0  0  0
 15 16  1  0  0  0  0
 16 35  1  0  0  0  0
 17 37  1  0  0  0  0
 18  5  1  0  0  0  0
 21  6  1  0  0  0  0
 22  9  1  0  0  0  0
 23  9  1  0  0  0  0
 26 12  1  0  0  0  0
 27 12  1  0  0  0  0
 28 12  1  0  0  0  0
 30 13  1  0  0  0  0
 31 13  1  0  0  0  0
 34 16  1  0  0  0  0
 36 16  1  0  0  0  0
 38 17  1  0  0  0  0
 39 17  1  0  0  0  0
M  END
