1,3
 OpenBabel05122313053D

 27 29  0  0  1  0  0  0  0  0999 V2000
   -0.2344   -0.5718    2.2140 N   0  0  0  0  0  0  0  0  0  0  0  0
   -0.7680   -0.1112    2.9612 H   0  0  0  0  0  0  0  0  0  0  0  0
    1.8997    1.0347    1.1645 N   0  0  0  0  0  2  0  0  0  0  0  0
    3.3583   -0.6652    1.3390 N   0  0  0  0  0  0  0  0  0  0  0  0
    3.5514   -1.6946    1.2767 H   0  0  0  0  0  0  0  0  0  0  0  0
    4.4369    2.4045   -1.2175 C   0  0  0  0  0  0  0  0  0  0  0  0
    4.6737    3.2490   -1.8820 H   0  0  0  0  0  0  0  0  0  0  0  0
    5.1015    0.2151   -0.3067 C   0  0  0  0  0  0  0  0  0  0  0  0
    5.7900   -0.6399   -0.2633 H   0  0  0  0  0  0  0  0  0  0  0  0
    3.9215    0.2445    0.4504 C   0  0  0  0  0  0  0  0  0  0  0  0
    5.3419    1.3155   -1.1386 C   0  0  0  0  0  0  0  0  0  0  0  0
    6.2558    1.3348   -1.7509 H   0  0  0  0  0  0  0  0  0  0  0  0
    2.1433   -0.1601    1.7122 C   0  0  1  0  0  3  0  0  0  0  0  0
    3.2509    2.4263   -0.4737 C   0  0  0  0  0  0  0  0  0  0  0  0
    2.5340    3.2585   -0.5342 H   0  0  0  0  0  0  0  0  0  0  0  0
    1.1744   -0.7799    2.6931 C   0  0  2  0  0  0  0  0  0  0  0  0
    1.2927   -0.1999    3.6340 H   0  0  0  0  0  0  0  0  0  0  0  0
   -0.1201   -2.8179    3.0167 C   0  0  0  0  0  0  0  0  0  0  0  0
   -0.1862   -3.8938    2.7641 H   0  0  0  0  0  0  0  0  0  0  0  0
   -0.5774   -2.6694    4.0190 H   0  0  0  0  0  0  0  0  0  0  0  0
    1.3269   -2.2985    2.9771 C   0  0  0  0  0  0  0  0  0  0  0  0
    1.8815   -2.4806    3.9174 H   0  0  0  0  0  0  0  0  0  0  0  0
    1.8750   -2.8095    2.1600 H   0  0  0  0  0  0  0  0  0  0  0  0
   -0.8051   -1.9249    1.9805 C   0  0  0  0  0  0  0  0  0  0  0  0
   -0.5195   -2.2617    0.9630 H   0  0  0  0  0  0  0  0  0  0  0  0
   -1.9095   -1.8819    2.0446 H   0  0  0  0  0  0  0  0  0  0  0  0
    2.9979    1.3240    0.3635 C   0  0  0  0  0  0  0  0  0  0  0  0
  1 16  1  0  0  0  0
  1  2  1  0  0  0  0
  4 13  1  0  0  0  0
  5  4  1  0  0  0  0
  6 11  2  0  0  0  0
  6 14  1  0  0  0  0
  7  6  1  0  0  0  0
  8  9  1  0  0  0  0
  8 10  2  0  0  0  0
 10  4  1  0  0  0  0
 11  8  1  0  0  0  0
 12 11  1  0  0  0  0
 13  3  1  1  0  0  0
 13 16  1  0  0  0  0
 14 27  2  0  0  0  0
 15 14  1  0  0  0  0
 16 21  1  0  0  0  0
 16 17  1  1  0  0  0
 18 20  1  0  0  0  0
 19 18  1  0  0  0  0
 21 18  1  0  0  0  0
 21 22  1  0  0  0  0
 23 21  1  0  0  0  0
 24 26  1  0  0  0  0
 24  1  1  0  0  0  0
 24 18  1  0  0  0  0
 25 24  1  0  0  0  0
 27 10  1  0  0  0  0
 27  3  1  0  0  0  0
M  END
