1,2
 OpenBabel05122313053D

 37 38  0  0  1  0  0  0  0  0999 V2000
    0.0578   -1.3404    0.1269 N   0  0  0  0  0  2  0  0  0  0  0  0
   -0.0416    1.3167   -0.0571 N   0  0  0  0  0  0  0  0  0  0  0  0
    0.2018   -2.6732   -0.1654 O   0  0  0  0  0  0  0  0  0  0  0  0
   -3.3685    0.7034   -0.5419 C   0  0  1  0  0  0  0  0  0  0  0  0
   -2.5414    1.2553    0.6079 C   0  0  0  0  0  0  0  0  0  0  0  0
   -1.1254    0.6264    0.7852 C   0  0  1  0  0  0  0  0  0  0  0  0
   -1.1295   -0.8399    0.3731 C   0  0  1  0  0  3  0  0  0  0  0  0
   -2.4369   -1.5696    0.2480 C   0  0  0  0  0  0  0  0  0  0  0  0
   -3.3301   -0.8070   -0.7303 C   0  0  1  0  0  0  0  0  0  0  0  0
   -4.6277   -0.1281   -0.3204 C   0  0  0  0  0  0  0  0  0  0  0  0
   -5.6912   -0.0253   -1.4016 C   0  0  0  0  0  0  0  0  0  0  0  0
   -5.2089   -0.3221    1.0662 C   0  0  0  0  0  0  0  0  0  0  0  0
   -0.7316    0.6830    2.2765 C   0  0  0  0  0  0  0  0  0  0  0  0
   -0.4354    1.4565   -1.4815 C   0  0  0  0  0  0  0  0  0  0  0  0
    0.3312    2.6519    0.4610 C   0  0  0  0  0  0  0  0  0  0  0  0
   -0.5814   -3.1298    0.2149 H   0  0  0  0  0  0  0  0  0  0  0  0
   -3.3651    1.3059   -1.4638 H   0  0  0  0  0  0  0  0  0  0  0  0
   -3.0792    1.1041    1.5642 H   0  0  0  0  0  0  0  0  0  0  0  0
   -2.4313    2.3544    0.5199 H   0  0  0  0  0  0  0  0  0  0  0  0
   -2.9208   -1.6611    1.2450 H   0  0  0  0  0  0  0  0  0  0  0  0
   -2.2908   -2.6044   -0.1207 H   0  0  0  0  0  0  0  0  0  0  0  0
   -3.2754   -1.1772   -1.7671 H   0  0  0  0  0  0  0  0  0  0  0  0
   -6.3663    0.8350   -1.2112 H   0  0  0  0  0  0  0  0  0  0  0  0
   -5.2416    0.1146   -2.4050 H   0  0  0  0  0  0  0  0  0  0  0  0
   -6.3142   -0.9433   -1.4353 H   0  0  0  0  0  0  0  0  0  0  0  0
   -5.8596    0.5354    1.3365 H   0  0  0  0  0  0  0  0  0  0  0  0
   -5.8342   -1.2383    1.0995 H   0  0  0  0  0  0  0  0  0  0  0  0
   -4.4475   -0.4162    1.8644 H   0  0  0  0  0  0  0  0  0  0  0  0
    0.3255    0.3751    2.4071 H   0  0  0  0  0  0  0  0  0  0  0  0
   -0.8828    1.6934    2.7028 H   0  0  0  0  0  0  0  0  0  0  0  0
   -1.3737   -0.0180    2.8452 H   0  0  0  0  0  0  0  0  0  0  0  0
   -1.2386    2.2155   -1.6046 H   0  0  0  0  0  0  0  0  0  0  0  0
    0.4585    1.7746   -2.0483 H   0  0  0  0  0  0  0  0  0  0  0  0
   -0.7791    0.4835   -1.8756 H   0  0  0  0  0  0  0  0  0  0  0  0
   -0.5370    3.3462    0.4319 H   0  0  0  0  0  0  0  0  0  0  0  0
    0.7253    2.5717    1.4867 H   0  0  0  0  0  0  0  0  0  0  0  0
    1.1549    3.0348   -0.1687 H   0  0  0  0  0  0  0  0  0  0  0  0
  2 15  1  0  0  0  0
  3  1  1  0  0  0  0
  3 16  1  0  0  0  0
  4 17  1  6  0  0  0
  4 10  1  0  0  0  0
  4  5  1  0  0  0  0
  5  6  1  0  0  0  0
  5 18  1  0  0  0  0
  6  2  1  6  0  0  0
  6 13  1  0  0  0  0
  7  1  1  6  0  0  0
  7  6  1  0  0  0  0
  8  7  1  0  0  0  0
  8 20  1  0  0  0  0
  9 22  1  6  0  0  0
  9  4  1  0  0  0  0
  9 10  1  0  0  0  0
  9  8  1  0  0  0  0
 10 12  1  0  0  0  0
 11 23  1  0  0  0  0
 11 10  1  0  0  0  0
 12 27  1  0  0  0  0
 12 26  1  0  0  0  0
 12 28  1  0  0  0  0
 13 29  1  0  0  0  0
 13 30  1  0  0  0  0
 13 31  1  0  0  0  0
 14  2  1  0  0  0  0
 15 36  1  0  0  0  0
 19  5  1  0  0  0  0
 21  8  1  0  0  0  0
 24 11  1  0  0  0  0
 25 11  1  0  0  0  0
 32 14  1  0  0  0  0
 33 14  1  0  0  0  0
 34 14  1  0  0  0  0
 35 15  1  0  0  0  0
 37 15  1  0  0  0  0
M  END
