1,5
 OpenBabel05122313053D

 30 32  0  0  1  0  0  0  0  0999 V2000
    0.1151    0.7532    0.0084 N   0  0  0  0  0  2  0  0  0  0  0  0
    0.6755    2.9417   -0.1804 N   0  0  0  0  0  0  0  0  0  0  0  0
   -0.6619    2.7784   -0.1268 N   0  0  0  0  0  0  0  0  0  0  0  0
   -1.2800    3.5872   -0.2174 H   0  0  0  0  0  0  0  0  0  0  0  0
    2.6831   -0.0854   -0.0860 N   0  0  0  0  0  2  0  0  0  0  0  0
    1.1148    1.6846   -0.0999 C   0  0  0  0  0  0  0  0  0  0  0  0
   -1.0209    1.4621   -0.0188 C   0  0  1  0  0  3  0  0  0  0  0  0
   -2.3897    0.9596    0.0402 C   0  0  0  0  0  0  0  0  0  0  0  0
   -2.6701   -0.3538   -0.4030 C   0  0  0  0  0  0  0  0  0  0  0  0
   -1.8616   -0.9820   -0.8181 H   0  0  0  0  0  0  0  0  0  0  0  0
   -3.9812   -0.8329   -0.3553 C   0  0  0  0  0  0  0  0  0  0  0  0
   -4.1854   -1.8553   -0.7097 H   0  0  0  0  0  0  0  0  0  0  0  0
   -5.0444   -0.0380    0.1265 C   0  0  0  0  0  0  0  0  0  0  0  0
   -4.7498    1.2710    0.5613 C   0  0  0  0  0  0  0  0  0  0  0  0
   -5.5601    1.9074    0.9492 H   0  0  0  0  0  0  0  0  0  0  0  0
   -3.4426    1.7676    0.5226 C   0  0  0  0  0  0  0  0  0  0  0  0
   -3.2410    2.7812    0.9043 H   0  0  0  0  0  0  0  0  0  0  0  0
   -6.4461   -0.5853    0.1838 C   0  0  0  0  0  0  0  0  0  0  0  0
   -7.1811    0.1906    0.4714 H   0  0  0  0  0  0  0  0  0  0  0  0
   -6.5176   -1.4113    0.9225 H   0  0  0  0  0  0  0  0  0  0  0  0
   -6.7521   -1.0073   -0.7952 H   0  0  0  0  0  0  0  0  0  0  0  0
    2.5180    1.2560   -0.0981 C   0  0  1  0  0  3  0  0  0  0  0  0
    3.9171   -0.6031   -0.0084 C   0  0  0  0  0  0  0  0  0  0  0  0
    3.9720   -1.7018    0.0566 H   0  0  0  0  0  0  0  0  0  0  0  0
    5.0599    0.2078    0.0147 C   0  0  0  0  0  0  0  0  0  0  0  0
    6.0578   -0.2494    0.0712 H   0  0  0  0  0  0  0  0  0  0  0  0
    4.8979    1.6025   -0.0292 C   0  0  0  0  0  0  0  0  0  0  0  0
    5.7753    2.2662   -0.0128 H   0  0  0  0  0  0  0  0  0  0  0  0
    3.6074    2.1436   -0.0764 C   0  0  0  0  0  0  0  0  0  0  0  0
    3.4249    3.2270   -0.0870 H   0  0  0  0  0  0  0  0  0  0  0  0
  2  3  1  0  0  0  0
  2  6  2  0  0  0  0
  3  7  1  0  0  0  0
  4  3  1  0  0  0  0
  5 23  1  0  0  0  0
  6  1  1  0  0  0  0
  7  1  1  0  0  0  0
  7  8  1  6  0  0  0
  8 16  1  0  0  0  0
  9 11  1  0  0  0  0
  9  8  2  0  0  0  0
 10  9  1  0  0  0  0
 11 13  2  0  0  0  0
 12 11  1  0  0  0  0
 13 18  1  0  0  0  0
 13 14  1  0  0  0  0
 14 15  1  0  0  0  0
 16 14  2  0  0  0  0
 16 17  1  0  0  0  0
 18 19  1  0  0  0  0
 18 20  1  0  0  0  0
 21 18  1  0  0  0  0
 22  6  1  1  0  0  0
 22  5  1  0  0  0  0
 22 29  1  0  0  0  0
 23 25  2  0  0  0  0
 23 24  1  0  0  0  0
 25 26  1  0  0  0  0
 27 28  1  0  0  0  0
 27 25  1  0  0  0  0
 29 27  2  0  0  0  0
 30 29  1  0  0  0  0
M  END
