3,4
 OpenBabel05122313063D

 30 30  0  0  1  0  0  0  0  0999 V2000
   -0.9824    2.9791   -0.2030 O   0  0  0  0  0  0  0  0  0  0  0  0
   -4.3106    0.7898   -1.5717 O   0  0  0  0  0  0  0  0  0  0  0  0
    1.8461    0.8200    0.0249 N   0  0  0  0  0  2  0  0  0  0  0  0
   -0.8224    0.6591   -0.2482 N   0  0  0  0  0  2  0  0  0  0  0  0
    1.1737    1.9875   -0.0578 C   0  0  2  0  0  3  0  0  0  0  0  0
    1.8534    3.2091   -0.0181 C   0  0  0  0  0  0  0  0  0  0  0  0
    3.2479    3.2017    0.1063 C   0  0  0  0  0  0  0  0  0  0  0  0
    3.9230    1.9723    0.1910 C   0  0  0  0  0  0  0  0  0  0  0  0
    3.1883    0.7825    0.1485 C   0  0  0  0  0  0  0  0  0  0  0  0
   -0.3307    1.9273   -0.1766 C   0  0  0  0  0  0  0  0  0  0  0  0
   -2.2579    0.3599   -0.2937 C   0  0  2  0  0  0  0  0  0  0  0  0
   -3.0178    1.2833   -1.2797 C   0  0  0  0  0  0  0  0  0  0  0  0
   -2.8641    0.2257    1.1362 C   0  0  0  0  0  0  0  0  0  0  0  0
   -4.0727   -0.7207    1.1491 C   0  0  0  0  0  0  0  0  0  0  0  0
   -3.1993    1.5706    1.7928 C   0  0  0  0  0  0  0  0  0  0  0  0
   -4.2087   -0.0919   -1.9769 H   0  0  0  0  0  0  0  0  0  0  0  0
    1.2456    4.1234   -0.0847 H   0  0  0  0  0  0  0  0  0  0  0  0
    3.8096    4.1473    0.1389 H   0  0  0  0  0  0  0  0  0  0  0  0
    5.0163    1.9233    0.2914 H   0  0  0  0  0  0  0  0  0  0  0  0
    3.6315   -0.2255    0.2105 H   0  0  0  0  0  0  0  0  0  0  0  0
   -2.3128   -0.6547   -0.7436 H   0  0  0  0  0  0  0  0  0  0  0  0
   -3.1472    2.2934   -0.8521 H   0  0  0  0  0  0  0  0  0  0  0  0
   -2.3900    1.3975   -2.1966 H   0  0  0  0  0  0  0  0  0  0  0  0
   -2.0621   -0.2616    1.7346 H   0  0  0  0  0  0  0  0  0  0  0  0
   -3.7950   -1.7205    0.7571 H   0  0  0  0  0  0  0  0  0  0  0  0
   -4.4470   -0.8571    2.1841 H   0  0  0  0  0  0  0  0  0  0  0  0
   -4.8955   -0.3155    0.5291 H   0  0  0  0  0  0  0  0  0  0  0  0
   -2.3473    2.2764    1.7696 H   0  0  0  0  0  0  0  0  0  0  0  0
   -4.0523    2.0618    1.2808 H   0  0  0  0  0  0  0  0  0  0  0  0
   -3.4962    1.4163    2.8502 H   0  0  0  0  0  0  0  0  0  0  0  0
  1 10  2  0  0  0  0
  2 12  1  0  0  0  0
  3  9  1  0  0  0  0
  4 10  1  0  0  0  0
  5 10  1  1  0  0  0
  5  6  1  0  0  0  0
  5  3  1  0  0  0  0
  6  7  2  0  0  0  0
  7 18  1  0  0  0  0
  7  8  1  0  0  0  0
  8 19  1  0  0  0  0
  9  8  2  0  0  0  0
  9 20  1  0  0  0  0
 11 21  1  6  0  0  0
 11  4  1  0  0  0  0
 11 13  1  0  0  0  0
 12 22  1  0  0  0  0
 12 11  1  0  0  0  0
 13 14  1  0  0  0  0
 13 24  1  0  0  0  0
 13 15  1  0  0  0  0
 14 26  1  0  0  0  0
 15 30  1  0  0  0  0
 16  2  1  0  0  0  0
 17  6  1  0  0  0  0
 23 12  1  0  0  0  0
 25 14  1  0  0  0  0
 27 14  1  0  0  0  0
 28 15  1  0  0  0  0
 29 15  1  0  0  0  0
M  END
