1,2
 OpenBabel05122313063D

 35 35  0  0  0  0  0  0  0  0999 V2000
   -0.5675    0.5534   -0.2655 N   0  0  0  0  0  2  0  0  0  0  0  0
   -3.1445    0.9260    0.0163 N   0  0  0  0  0  2  0  0  0  0  0  0
   -0.9559    1.7989   -0.2277 C   0  0  0  0  0  0  0  0  0  0  0  0
   -0.2299    2.6299   -0.2938 H   0  0  0  0  0  0  0  0  0  0  0  0
   -2.3762    2.0590   -0.0818 C   0  0  0  0  0  0  0  0  0  0  0  0
    0.8479    0.2184   -0.3290 C   0  0  0  0  0  0  0  0  0  0  0  0
    1.4154    1.0872   -0.7263 H   0  0  0  0  0  0  0  0  0  0  0  0
    0.9439   -0.6422   -1.0222 H   0  0  0  0  0  0  0  0  0  0  0  0
   -4.4775    1.0321    0.1697 C   0  0  0  0  0  0  0  0  0  0  0  0
   -5.0081    0.0659    0.2374 H   0  0  0  0  0  0  0  0  0  0  0  0
   -5.1108    2.2807    0.2312 C   0  0  0  0  0  0  0  0  0  0  0  0
   -6.2018    2.3239    0.3575 H   0  0  0  0  0  0  0  0  0  0  0  0
    1.3708   -0.2126    1.0517 C   0  0  0  0  0  0  0  0  0  0  0  0
    1.3462    0.6614    1.7400 H   0  0  0  0  0  0  0  0  0  0  0  0
    0.6672   -0.9727    1.4468 H   0  0  0  0  0  0  0  0  0  0  0  0
   -2.9552    3.3389   -0.0293 C   0  0  0  0  0  0  0  0  0  0  0  0
   -2.3133    4.2276   -0.1131 H   0  0  0  0  0  0  0  0  0  0  0  0
   -4.3419    3.4513    0.1291 C   0  0  0  0  0  0  0  0  0  0  0  0
   -4.8185    4.4416    0.1727 H   0  0  0  0  0  0  0  0  0  0  0  0
    3.8617    0.1398    0.4801 C   0  0  0  0  0  0  0  0  0  0  0  0
    3.6445    0.4729   -0.5565 H   0  0  0  0  0  0  0  0  0  0  0  0
    3.8667    1.0687    1.0919 H   0  0  0  0  0  0  0  0  0  0  0  0
    2.7778   -0.8135    0.9895 C   0  0  0  0  0  0  0  0  0  0  0  0
    2.7432   -1.7255    0.3529 H   0  0  0  0  0  0  0  0  0  0  0  0
    3.0484   -1.1690    2.0075 H   0  0  0  0  0  0  0  0  0  0  0  0
    6.0990    1.4451   -0.7372 O   0  0  0  0  0  0  0  0  0  0  0  0
    6.3133    0.4277   -0.1040 C   0  0  0  0  0  0  0  0  0  0  0  0
    5.2569   -0.4790    0.4953 C   0  0  0  0  0  0  0  0  0  0  0  0
    5.2724   -1.4297   -0.0836 H   0  0  0  0  0  0  0  0  0  0  0  0
    5.5766   -0.7641    1.5200 H   0  0  0  0  0  0  0  0  0  0  0  0
    7.5598   -0.0500    0.1412 O   0  0  0  0  0  0  0  0  0  0  0  0
    8.6307    0.7182   -0.4195 C   0  0  0  0  0  0  0  0  0  0  0  0
    8.5432    0.7741   -1.5237 H   0  0  0  0  0  0  0  0  0  0  0  0
    9.5635    0.2003   -0.1336 H   0  0  0  0  0  0  0  0  0  0  0  0
    8.6263    1.7534   -0.0221 H   0  0  0  0  0  0  0  0  0  0  0  0
  1  3  1  0  0  0  0
  2  9  1  0  0  0  0
  3  5  2  0  0  0  0
  4  3  1  0  0  0  0
  5 16  1  0  0  0  0
  5  2  1  0  0  0  0
  6  1  1  0  0  0  0
  6 13  1  0  0  0  0
  7  6  1  0  0  0  0
  8  6  1  0  0  0  0
  9 11  2  0  0  0  0
  9 10  1  0  0  0  0
 11 12  1  0  0  0  0
 13 15  1  0  0  0  0
 13 14  1  0  0  0  0
 16 18  2  0  0  0  0
 17 16  1  0  0  0  0
 18 19  1  0  0  0  0
 18 11  1  0  0  0  0
 20 28  1  0  0  0  0
 20 23  1  0  0  0  0
 20 22  1  0  0  0  0
 21 20  1  0  0  0  0
 23 13  1  0  0  0  0
 23 25  1  0  0  0  0
 24 23  1  0  0  0  0
 26 27  2  0  0  0  0
 27 31  1  0  0  0  0
 27 28  1  0  0  0  0
 28 30  1  0  0  0  0
 29 28  1  0  0  0  0
 32 34  1  0  0  0  0
 32 35  1  0  0  0  0
 32 31  1  0  0  0  0
 33 32  1  0  0  0  0
M  END
