3,4
 OpenBabel05122313063D

 41 42  0  0  1  0  0  0  0  0999 V2000
    3.8041   -2.4590   -0.2678 O   0  0  0  0  0  0  0  0  0  0  0  0
    2.2975   -3.8505    0.6859 O   0  0  0  0  0  0  0  0  0  0  0  0
   -2.4456   -0.3835    0.0657 N   0  0  0  0  0  2  0  0  0  0  0  0
    0.7340    2.1451    0.1046 N   0  0  0  0  0  2  0  0  0  0  0  0
   -3.5824   -0.0338    0.7057 C   0  0  0  0  0  3  0  0  0  0  0  0
   -3.5787    0.9559    1.1831 H   0  0  0  0  0  0  0  0  0  0  0  0
   -4.6901   -0.8818    0.7692 C   0  0  0  0  0  0  0  0  0  0  0  0
   -5.5969   -0.5531    1.2953 H   0  0  0  0  0  0  0  0  0  0  0  0
   -4.6038   -2.1411    0.1605 C   0  0  0  0  0  0  0  0  0  0  0  0
   -5.4525   -2.8407    0.1930 H   0  0  0  0  0  0  0  0  0  0  0  0
   -3.4156   -2.4979   -0.4858 C   0  0  0  0  0  0  0  0  0  0  0  0
   -3.3069   -3.4799   -0.9679 H   0  0  0  0  0  0  0  0  0  0  0  0
   -2.3316   -1.6021   -0.5314 C   0  0  0  0  0  0  0  0  0  0  0  0
   -1.0321   -1.9532   -1.2029 C   0  0  0  0  0  0  0  0  0  0  0  0
   -0.7621   -1.0826   -1.8386 H   0  0  0  0  0  0  0  0  0  0  0  0
   -1.2002   -2.8143   -1.8811 H   0  0  0  0  0  0  0  0  0  0  0  0
    0.1030   -2.2804   -0.2067 C   0  0  0  0  0  0  0  0  0  0  0  0
    0.0103   -3.3259    0.1469 H   0  0  0  0  0  0  0  0  0  0  0  0
    0.0001   -1.6451    0.6988 H   0  0  0  0  0  0  0  0  0  0  0  0
    1.5059   -2.0831   -0.8096 C   0  0  1  0  0  0  0  0  0  0  0  0
    1.5112   -2.5460   -1.8253 H   0  0  0  0  0  0  0  0  0  0  0  0
    1.9052   -0.6040   -1.0004 C   0  0  0  0  0  0  0  0  0  0  0  0
    2.8101   -0.5435   -1.6367 H   0  0  0  0  0  0  0  0  0  0  0  0
    1.0932   -0.0952   -1.5608 H   0  0  0  0  0  0  0  0  0  0  0  0
    2.1661    0.1502    0.3251 C   0  0  0  0  0  0  0  0  0  0  0  0
    1.4610   -0.1880    1.1149 H   0  0  0  0  0  0  0  0  0  0  0  0
    3.1918   -0.0670    0.6807 H   0  0  0  0  0  0  0  0  0  0  0  0
    1.9944    1.6391    0.2050 C   0  0  1  0  0  3  0  0  0  0  0  0
    3.0946    2.5160    0.1728 C   0  0  0  0  0  0  0  0  0  0  0  0
    4.1058    2.0923    0.2520 H   0  0  0  0  0  0  0  0  0  0  0  0
    2.8993    3.8952    0.0444 C   0  0  0  0  0  0  0  0  0  0  0  0
    3.7599    4.5807    0.0234 H   0  0  0  0  0  0  0  0  0  0  0  0
    1.5907    4.3854   -0.0618 C   0  0  0  0  0  0  0  0  0  0  0  0
    1.3805    5.4584   -0.1701 H   0  0  0  0  0  0  0  0  0  0  0  0
    0.5336    3.4734   -0.0347 C   0  0  0  0  0  0  0  0  0  0  0  0
   -0.5132    3.7923   -0.1352 H   0  0  0  0  0  0  0  0  0  0  0  0
    2.5380   -2.8983   -0.0315 C   0  0  0  0  0  0  0  0  0  0  0  0
    4.8387   -3.2064    0.3829 C   0  0  0  0  0  0  0  0  0  0  0  0
    4.8210   -4.2677    0.0628 H   0  0  0  0  0  0  0  0  0  0  0  0
    4.7131   -3.1775    1.4841 H   0  0  0  0  0  0  0  0  0  0  0  0
    5.7918   -2.7311    0.0898 H   0  0  0  0  0  0  0  0  0  0  0  0
  1 37  1  0  0  0  0
  1 38  1  0  0  0  0
  3  5  1  0  0  0  0
  4 28  1  0  0  0  0
  5  7  1  0  0  0  0
  5  6  1  0  0  0  0
  7  8  1  0  0  0  0
  9 10  1  0  0  0  0
  9  7  2  0  0  0  0
 11  9  1  0  0  0  0
 12 11  1  0  0  0  0
 13 11  2  0  0  0  0
 13  3  1  0  0  0  0
 14 13  1  0  0  0  0
 14 17  1  0  0  0  0
 15 14  1  0  0  0  0
 16 14  1  0  0  0  0
 17 18  1  0  0  0  0
 17 19  1  0  0  0  0
 20 21  1  6  0  0  0
 20 17  1  0  0  0  0
 20 37  1  0  0  0  0
 22 20  1  0  0  0  0
 22 25  1  0  0  0  0
 23 22  1  0  0  0  0
 24 22  1  0  0  0  0
 25 27  1  0  0  0  0
 25 26  1  0  0  0  0
 28 25  1  6  0  0  0
 29 28  1  0  0  0  0
 29 30  1  0  0  0  0
 31 29  2  0  0  0  0
 32 31  1  0  0  0  0
 33 35  2  0  0  0  0
 33 31  1  0  0  0  0
 34 33  1  0  0  0  0
 35  4  1  0  0  0  0
 36 35  1  0  0  0  0
 37  2  2  0  0  0  0
 38 40  1  0  0  0  0
 39 38  1  0  0  0  0
 41 38  1  0  0  0  0
M  END
