2,3
 OpenBabel05122313063D

 30 31  0  0  0  0  0  0  0  0999 V2000
   -3.5786   -0.8764   -0.1706 O   0  0  0  0  0  0  0  0  0  0  0  0
   -1.8702    0.5603   -0.2794 N   0  0  0  0  0  2  0  0  0  0  0  0
    0.8186    0.7399   -0.2326 N   0  0  0  0  0  2  0  0  0  0  0  0
    6.3836    0.1262   -0.0195 N   0  0  0  0  0  0  0  0  0  0  0  0
    6.9720    0.8573    0.3747 H   0  0  0  0  0  0  0  0  0  0  0  0
    6.7756   -0.8133   -0.0386 H   0  0  0  0  0  0  0  0  0  0  0  0
   -1.3179    1.7955   -0.3208 C   0  0  0  0  0  0  0  0  0  0  0  0
   -2.1176    2.9548   -0.3440 C   0  0  0  0  0  0  0  0  0  0  0  0
   -1.6510    3.9490   -0.3818 H   0  0  0  0  0  0  0  0  0  0  0  0
   -3.5095    2.7986   -0.3025 C   0  0  0  0  0  0  0  0  0  0  0  0
   -4.1659    3.6817   -0.3146 H   0  0  0  0  0  0  0  0  0  0  0  0
   -4.0752    1.5192   -0.2382 C   0  0  0  0  0  0  0  0  0  0  0  0
   -5.1636    1.3882   -0.1984 H   0  0  0  0  0  0  0  0  0  0  0  0
   -3.1981    0.4070   -0.2270 C   0  0  0  0  0  0  0  0  0  0  0  0
    0.1427    1.8480   -0.3117 C   0  0  0  0  0  0  0  0  0  0  0  0
    0.6204    2.8459   -0.3718 H   0  0  0  0  0  0  0  0  0  0  0  0
   -4.9585   -1.1913   -0.0466 C   0  0  0  0  0  0  0  0  0  0  0  0
   -5.0138   -2.2928    0.0103 H   0  0  0  0  0  0  0  0  0  0  0  0
   -5.5373   -0.8412   -0.9288 H   0  0  0  0  0  0  0  0  0  0  0  0
   -5.3917   -0.7552    0.8790 H   0  0  0  0  0  0  0  0  0  0  0  0
    2.2043    0.6496   -0.1621 C   0  0  0  0  0  0  0  0  0  0  0  0
    3.0613    1.7348    0.1577 C   0  0  0  0  0  0  0  0  0  0  0  0
    2.6404    2.7210    0.4027 H   0  0  0  0  0  0  0  0  0  0  0  0
    4.4385    1.5600    0.2169 C   0  0  0  0  0  0  0  0  0  0  0  0
    5.0878    2.4063    0.4909 H   0  0  0  0  0  0  0  0  0  0  0  0
    5.0244    0.2900   -0.0515 C   0  0  0  0  0  0  0  0  0  0  0  0
    4.1633   -0.7940   -0.3694 C   0  0  0  0  0  0  0  0  0  0  0  0
    4.5944   -1.7852   -0.5791 H   0  0  0  0  0  0  0  0  0  0  0  0
    2.7858   -0.6208   -0.4123 C   0  0  0  0  0  0  0  0  0  0  0  0
    2.1194   -1.4619   -0.6730 H   0  0  0  0  0  0  0  0  0  0  0  0
  1 17  1  0  0  0  0
  2 14  1  0  0  0  0
  3 21  1  0  0  0  0
  4  5  1  0  0  0  0
  6  4  1  0  0  0  0
  7 15  2  0  0  0  0
  7  2  1  0  0  0  0
  8  7  1  0  0  0  0
  8 10  2  0  0  0  0
  9  8  1  0  0  0  0
 10 12  1  0  0  0  0
 11 10  1  0  0  0  0
 12 14  2  0  0  0  0
 12 13  1  0  0  0  0
 14  1  1  0  0  0  0
 15  3  1  0  0  0  0
 16 15  1  0  0  0  0
 17 18  1  0  0  0  0
 17 20  1  0  0  0  0
 19 17  1  0  0  0  0
 21 22  1  0  0  0  0
 22 24  2  0  0  0  0
 22 23  1  0  0  0  0
 24 25  1  0  0  0  0
 26  4  1  0  0  0  0
 26 24  1  0  0  0  0
 27 26  2  0  0  0  0
 28 27  1  0  0  0  0
 29 27  1  0  0  0  0
 29 21  2  0  0  0  0
 30 29  1  0  0  0  0
M  END
