1,3
 OpenBabel05122313063D

 22 22  0  0  1  0  0  0  0  0999 V2000
   -1.4064    0.6717    0.0055 N   0  0  0  0  0  2  0  0  0  0  0  0
   -2.8888   -1.2105   -0.1756 N   0  0  0  0  0  0  0  0  0  0  0  0
   -0.6239   -1.9325   -0.0863 N   0  0  0  0  0  2  0  0  0  0  0  0
   -3.6954    0.9670   -0.0862 N   0  0  0  0  0  0  0  0  0  0  0  0
   -3.4703    2.3036    0.0031 N   0  0  0  0  0  0  0  0  0  0  0  0
   -2.5913    0.0833   -0.0883 C   0  0  1  0  0  3  0  0  0  0  0  0
   -1.9402   -2.1522   -0.1431 C   0  0  0  0  0  0  0  0  0  0  0  0
   -2.4319   -3.5853   -0.1603 C   0  0  0  0  0  0  0  0  0  0  0  0
   -3.3602   -3.9063    1.0165 C   0  0  0  0  0  0  0  0  0  0  0  0
   -4.6847    2.8533   -0.0179 C   0  0  0  0  0  0  0  0  0  0  0  0
   -5.7088    1.8650   -0.1235 C   0  0  0  0  0  0  0  0  0  0  0  0
   -5.0351    0.6565   -0.1649 C   0  0  0  0  0  0  0  0  0  0  0  0
   -1.5339    1.6953    0.0955 H   0  0  0  0  0  0  0  0  0  0  0  0
   -0.0878   -2.8038   -0.0171 H   0  0  0  0  0  0  0  0  0  0  0  0
   -1.5682   -4.2820   -0.1862 H   0  0  0  0  0  0  0  0  0  0  0  0
   -2.9819   -3.7218   -1.1160 H   0  0  0  0  0  0  0  0  0  0  0  0
   -3.7507   -4.9388    0.9327 H   0  0  0  0  0  0  0  0  0  0  0  0
   -4.2187   -3.2078    1.0286 H   0  0  0  0  0  0  0  0  0  0  0  0
   -2.8300   -3.8160    1.9856 H   0  0  0  0  0  0  0  0  0  0  0  0
   -4.7920    3.9439    0.0428 H   0  0  0  0  0  0  0  0  0  0  0  0
   -6.7917    2.0205   -0.1643 H   0  0  0  0  0  0  0  0  0  0  0  0
   -5.3597   -0.3848   -0.2435 H   0  0  0  0  0  0  0  0  0  0  0  0
  1 13  1  0  0  0  0
  2  7  2  0  0  0  0
  3 14  1  0  0  0  0
  4  5  1  0  0  0  0
  6  2  1  1  0  0  0
  6  4  1  0  0  0  0
  6  1  1  0  0  0  0
  7  3  1  0  0  0  0
  8  7  1  0  0  0  0
  8  9  1  0  0  0  0
  9 18  1  0  0  0  0
  9 19  1  0  0  0  0
 10  5  2  0  0  0  0
 10 20  1  0  0  0  0
 11 10  1  0  0  0  0
 12 11  2  0  0  0  0
 12  4  1  0  0  0  0
 15  8  1  0  0  0  0
 16  8  1  0  0  0  0
 17  9  1  0  0  0  0
 21 11  1  0  0  0  0
 22 12  1  0  0  0  0
M  END
