1,2,3,4
 OpenBabel05122313063D

 76 79  0  0  0  0  0  0  0  0999 V2000
    0.1243   -1.5634   -0.8873 P   0  0  2  0  0  0  0  0  0  0  0  0
   -0.1243    1.5630   -0.8875 P   0  0  1  0  0  0  0  0  0  0  0  0
   -1.8792   -0.5835    0.9031 O   0  5  0  0  0  0  0  0  0  0  0  0
    1.8794    0.5834    0.9027 O   0  5  0  0  0  0  0  0  0  0  0  0
   -2.4685   -1.3272   -0.0379 C   0  0  0  0  0  0  0  0  0  0  0  0
   -1.6453   -1.9880   -0.9972 C   0  0  0  0  0  0  0  0  0  0  0  0
   -2.2058   -2.8077   -1.9942 C   0  0  0  0  0  0  0  0  0  0  0  0
   -1.5531   -3.3201   -2.7187 H   0  0  0  0  0  0  0  0  0  0  0  0
   -3.5930   -2.9670   -2.0425 C   0  0  0  0  0  0  0  0  0  0  0  0
   -4.0533   -3.6093   -2.8078 H   0  0  0  0  0  0  0  0  0  0  0  0
   -4.4059   -2.2946   -1.1098 C   0  0  0  0  0  0  0  0  0  0  0  0
   -5.4936   -2.4297   -1.1816 H   0  0  0  0  0  0  0  0  0  0  0  0
   -3.8915   -1.4639   -0.0977 C   0  0  0  0  0  0  0  0  0  0  0  0
    0.4214   -0.6391   -2.4826 C   0  0  0  0  0  0  0  0  0  0  0  0
    1.5015   -0.3908   -2.5389 H   0  0  0  0  0  0  0  0  0  0  0  0
    0.1714   -1.2962   -3.3406 H   0  0  0  0  0  0  0  0  0  0  0  0
   -0.4212    0.6385   -2.4827 C   0  0  0  0  0  0  0  0  0  0  0  0
   -1.5012    0.3902   -2.5391 H   0  0  0  0  0  0  0  0  0  0  0  0
   -0.1710    1.2956   -3.3408 H   0  0  0  0  0  0  0  0  0  0  0  0
    1.6452    1.9880   -0.9974 C   0  0  0  0  0  0  0  0  0  0  0  0
    2.4686    1.3273   -0.0383 C   0  0  0  0  0  0  0  0  0  0  0  0
    3.8915    1.4642   -0.0981 C   0  0  0  0  0  0  0  0  0  0  0  0
    4.4058    2.2951   -1.1101 C   0  0  0  0  0  0  0  0  0  0  0  0
    5.4934    2.4304   -1.1820 H   0  0  0  0  0  0  0  0  0  0  0  0
    3.5927    2.9676   -2.0428 C   0  0  0  0  0  0  0  0  0  0  0  0
    4.0528    3.6100   -2.8080 H   0  0  0  0  0  0  0  0  0  0  0  0
    2.2055    2.8079   -1.9943 C   0  0  0  0  0  0  0  0  0  0  0  0
    1.5526    3.3204   -2.7187 H   0  0  0  0  0  0  0  0  0  0  0  0
    1.0942   -3.1018   -1.0243 C   0  0  0  0  0  0  0  0  0  0  0  0
    2.4167   -3.0624   -1.5150 C   0  0  0  0  0  0  0  0  0  0  0  0
    2.8481   -2.1190   -1.8824 H   0  0  0  0  0  0  0  0  0  0  0  0
    3.1998   -4.2254   -1.5213 C   0  0  0  0  0  0  0  0  0  0  0  0
    4.2299   -4.1851   -1.9067 H   0  0  0  0  0  0  0  0  0  0  0  0
    2.6757   -5.4320   -1.0310 C   0  0  0  0  0  0  0  0  0  0  0  0
    3.2931   -6.3429   -1.0340 H   0  0  0  0  0  0  0  0  0  0  0  0
    1.3649   -5.4712   -0.5293 C   0  0  0  0  0  0  0  0  0  0  0  0
    0.9518   -6.4125   -0.1364 H   0  0  0  0  0  0  0  0  0  0  0  0
    0.5755   -4.3126   -0.5200 C   0  0  0  0  0  0  0  0  0  0  0  0
   -0.4485   -4.3432   -0.1185 H   0  0  0  0  0  0  0  0  0  0  0  0
   -4.7969   -0.7226    0.9020 C   0  0  0  0  0  0  0  0  0  0  0  0
   -4.4784   -1.1943    2.3407 C   0  0  0  0  0  0  0  0  0  0  0  0
   -3.4261   -0.9913    2.6103 H   0  0  0  0  0  0  0  0  0  0  0  0
   -4.6623   -2.2828    2.4461 H   0  0  0  0  0  0  0  0  0  0  0  0
   -5.1302   -0.6646    3.0657 H   0  0  0  0  0  0  0  0  0  0  0  0
   -6.2875   -0.9952    0.6315 C   0  0  0  0  0  0  0  0  0  0  0  0
   -6.9011   -0.4387    1.3678 H   0  0  0  0  0  0  0  0  0  0  0  0
   -6.5406   -2.0700    0.7343 H   0  0  0  0  0  0  0  0  0  0  0  0
   -6.5966   -0.6599   -0.3797 H   0  0  0  0  0  0  0  0  0  0  0  0
   -4.5618    0.8025    0.7796 C   0  0  0  0  0  0  0  0  0  0  0  0
   -3.5142    1.0780    1.0012 H   0  0  0  0  0  0  0  0  0  0  0  0
   -5.2153    1.3450    1.4934 H   0  0  0  0  0  0  0  0  0  0  0  0
   -4.8107    1.1568   -0.2421 H   0  0  0  0  0  0  0  0  0  0  0  0
   -1.0946    3.1013   -1.0245 C   0  0  0  0  0  0  0  0  0  0  0  0
   -0.5763    4.3120   -0.5197 C   0  0  0  0  0  0  0  0  0  0  0  0
    0.4475    4.3427   -0.1178 H   0  0  0  0  0  0  0  0  0  0  0  0
   -1.3660    5.4704   -0.5290 C   0  0  0  0  0  0  0  0  0  0  0  0
   -0.9533    6.4117   -0.1356 H   0  0  0  0  0  0  0  0  0  0  0  0
   -2.6766    5.4311   -1.0312 C   0  0  0  0  0  0  0  0  0  0  0  0
   -3.2942    6.3418   -1.0341 H   0  0  0  0  0  0  0  0  0  0  0  0
   -3.2002    4.2245   -1.5221 C   0  0  0  0  0  0  0  0  0  0  0  0
   -4.2302    4.1841   -1.9078 H   0  0  0  0  0  0  0  0  0  0  0  0
   -2.4169    3.0617   -1.5158 C   0  0  0  0  0  0  0  0  0  0  0  0
   -2.8479    2.1183   -1.8836 H   0  0  0  0  0  0  0  0  0  0  0  0
    4.7971    0.7231    0.9015 C   0  0  0  0  0  0  0  0  0  0  0  0
    4.5623   -0.8021    0.7791 C   0  0  0  0  0  0  0  0  0  0  0  0
    3.5147   -1.0777    1.0006 H   0  0  0  0  0  0  0  0  0  0  0  0
    5.2158   -1.3445    1.4930 H   0  0  0  0  0  0  0  0  0  0  0  0
    4.8113   -1.1564   -0.2426 H   0  0  0  0  0  0  0  0  0  0  0  0
    4.4786    1.1946    2.3402 C   0  0  0  0  0  0  0  0  0  0  0  0
    3.4264    0.9913    2.6099 H   0  0  0  0  0  0  0  0  0  0  0  0
    4.6622    2.2832    2.4456 H   0  0  0  0  0  0  0  0  0  0  0  0
    5.1307    0.6652    3.0652 H   0  0  0  0  0  0  0  0  0  0  0  0
    6.2876    0.9959    0.6309 C   0  0  0  0  0  0  0  0  0  0  0  0
    6.5967    0.6608   -0.3803 H   0  0  0  0  0  0  0  0  0  0  0  0
    6.9014    0.4395    1.3672 H   0  0  0  0  0  0  0  0  0  0  0  0
    6.5406    2.0708    0.7338 H   0  0  0  0  0  0  0  0  0  0  0  0
  1 14  1  6  0  0  0
  2 17  1  6  0  0  0
  5  3  1  0  0  0  0
  6  1  1  0  0  0  0
  6  5  2  0  0  0  0
  7  6  1  0  0  0  0
  8  7  1  0  0  0  0
  9  7  2  0  0  0  0
  9 11  1  0  0  0  0
 10  9  1  0  0  0  0
 11 13  2  0  0  0  0
 12 11  1  0  0  0  0
 13  5  1  0  0  0  0
 13 40  1  0  0  0  0
 15 14  1  0  0  0  0
 16 14  1  0  0  0  0
 17 14  1  0  0  0  0
 18 17  1  0  0  0  0
 19 17  1  0  0  0  0
 20  2  1  0  0  0  0
 20 21  1  0  0  0  0
 21  4  1  0  0  0  0
 22 21  2  0  0  0  0
 22 64  1  0  0  0  0
 23 22  1  0  0  0  0
 24 23  1  0  0  0  0
 25 27  1  0  0  0  0
 25 23  2  0  0  0  0
 26 25  1  0  0  0  0
 27 20  2  0  0  0  0
 28 27  1  0  0  0  0
 29  1  1  0  0  0  0
 29 38  1  0  0  0  0
 30 29  2  0  0  0  0
 31 30  1  0  0  0  0
 32 30  1  0  0  0  0
 32 34  2  0  0  0  0
 33 32  1  0  0  0  0
 34 36  1  0  0  0  0
 35 34  1  0  0  0  0
 36 38  2  0  0  0  0
 36 37  1  0  0  0  0
 38 39  1  0  0  0  0
 40 41  1  0  0  0  0
 41 43  1  0  0  0  0
 41 42  1  0  0  0  0
 41 44  1  0  0  0  0
 45 47  1  0  0  0  0
 45 40  1  0  0  0  0
 45 46  1  0  0  0  0
 48 45  1  0  0  0  0
 49 40  1  0  0  0  0
 49 50  1  0  0  0  0
 49 51  1  0  0  0  0
 52 49  1  0  0  0  0
 53  2  1  0  0  0  0
 53 54  1  0  0  0  0
 54 55  1  0  0  0  0
 56 54  2  0  0  0  0
 56 57  1  0  0  0  0
 58 56  1  0  0  0  0
 59 58  1  0  0  0  0
 60 62  1  0  0  0  0
 60 58  2  0  0  0  0
 61 60  1  0  0  0  0
 62 53  2  0  0  0  0
 63 62  1  0  0  0  0
 64 69  1  0  0  0  0
 65 64  1  0  0  0  0
 65 66  1  0  0  0  0
 65 67  1  0  0  0  0
 68 65  1  0  0  0  0
 69 71  1  0  0  0  0
 69 70  1  0  0  0  0
 69 72  1  0  0  0  0
 73 76  1  0  0  0  0
 73 64  1  0  0  0  0
 73 75  1  0  0  0  0
 74 73  1  0  0  0  0
M  CHG  2   3  -1   4  -1
M  END
