1,2
 OpenBabel05122313063D

 27 27  0  0  0  0  0  0  0  0999 V2000
   -1.6406   -1.2710   -0.2517 O   0  5  0  0  0  0  0  0  0  0  0  0
   -0.3925    1.4241   -0.0634 N   0  0  0  0  0  2  0  0  0  0  0  0
    2.8649    1.5016   -0.1692 N   0  3  0  0  0  0  0  0  0  0  0  0
    3.1784    2.1079   -0.9456 H   0  0  0  0  0  0  0  0  0  0  0  0
    2.4012    0.6613   -0.7057 H   0  0  0  0  0  0  0  0  0  0  0  0
   -2.8004    0.8596    0.0325 C   0  0  0  0  0  0  0  0  0  0  0  0
   -2.7324   -0.5882   -0.1296 C   0  0  0  0  0  0  0  0  0  0  0  0
   -3.9843   -1.2901   -0.1579 C   0  0  0  0  0  0  0  0  0  0  0  0
   -3.9278   -2.3807   -0.2875 H   0  0  0  0  0  0  0  0  0  0  0  0
   -5.1993   -0.6370   -0.0190 C   0  0  0  0  0  0  0  0  0  0  0  0
   -6.1323   -1.2225   -0.0405 H   0  0  0  0  0  0  0  0  0  0  0  0
   -5.2608    0.7712    0.1512 C   0  0  0  0  0  0  0  0  0  0  0  0
   -6.2290    1.2802    0.2605 H   0  0  0  0  0  0  0  0  0  0  0  0
   -4.0764    1.4892    0.1712 C   0  0  0  0  0  0  0  0  0  0  0  0
   -4.0992    2.5851    0.2936 H   0  0  0  0  0  0  0  0  0  0  0  0
   -1.6637    1.7324    0.0331 C   0  0  0  0  0  3  0  0  0  0  0  0
   -1.9182    2.8151    0.1178 H   0  0  0  0  0  0  0  0  0  0  0  0
    0.5620    2.5163   -0.1284 C   0  0  0  0  0  0  0  0  0  0  0  0
    0.1122    3.4556    0.2674 H   0  0  0  0  0  0  0  0  0  0  0  0
    0.8172    2.7238   -1.1962 H   0  0  0  0  0  0  0  0  0  0  0  0
    1.8515    2.2396    0.6514 C   0  0  0  0  0  0  0  0  0  0  0  0
    2.3258    3.1844    0.9847 H   0  0  0  0  0  0  0  0  0  0  0  0
    1.6363    1.5995    1.5332 H   0  0  0  0  0  0  0  0  0  0  0  0
    4.0338    0.9872    0.5891 C   0  0  0  0  0  0  0  0  0  0  0  0
    4.5578    1.8227    1.0903 H   0  0  0  0  0  0  0  0  0  0  0  0
    4.7106    0.4724   -0.1168 H   0  0  0  0  0  0  0  0  0  0  0  0
    3.6441    0.2571    1.3270 H   0  0  0  0  0  0  0  0  0  0  0  0
  1  7  1  0  0  0  0
  2 16  1  0  0  0  0
  3 24  1  0  0  0  0
  3 21  1  0  0  0  0
  4  3  1  0  0  0  0
  5  3  1  0  0  0  0
  6 16  1  0  0  0  0
  6 14  1  0  0  0  0
  7  6  2  0  0  0  0
  8  7  1  0  0  0  0
  8 10  2  0  0  0  0
  9  8  1  0  0  0  0
 10 12  1  0  0  0  0
 11 10  1  0  0  0  0
 12 14  2  0  0  0  0
 12 13  1  0  0  0  0
 14 15  1  0  0  0  0
 16 17  1  0  0  0  0
 18  2  1  0  0  0  0
 18 19  1  0  0  0  0
 18 21  1  0  0  0  0
 20 18  1  0  0  0  0
 21 22  1  0  0  0  0
 21 23  1  0  0  0  0
 24 25  1  0  0  0  0
 24 27  1  0  0  0  0
 26 24  1  0  0  0  0
M  CHG  2   1  -1   3   1
M  END
