1,35
 OpenBabel05122313063D

 35 37  0  0  0  0  0  0  0  0999 V2000
    0.6342    1.8458    1.5187 N   0  0  0  0  0  2  0  0  0  0  0  0
   -1.5478   -1.9369    1.8232 N   0  0  0  0  0  0  0  0  0  0  0  0
   -2.5573   -1.9224    1.6714 H   0  0  0  0  0  0  0  0  0  0  0  0
   -0.8958    3.2273   -0.7495 C   0  0  0  0  0  0  0  0  0  0  0  0
   -1.8163    3.8935   -1.6235 C   0  0  0  0  0  0  0  0  0  0  0  0
   -1.5260    3.9578   -2.6824 H   0  0  0  0  0  0  0  0  0  0  0  0
   -3.0188    4.4182   -1.1690 C   0  0  0  0  0  0  0  0  0  0  0  0
   -3.6984    4.9084   -1.8841 H   0  0  0  0  0  0  0  0  0  0  0  0
   -3.3846    4.3332    0.1980 C   0  0  0  0  0  0  0  0  0  0  0  0
   -4.3362    4.7555    0.5507 H   0  0  0  0  0  0  0  0  0  0  0  0
   -2.5124    3.7127    1.0807 C   0  0  0  0  0  0  0  0  0  0  0  0
   -2.7698    3.6408    2.1508 H   0  0  0  0  0  0  0  0  0  0  0  0
   -1.2763    3.1424    0.6524 C   0  0  0  0  0  0  0  0  0  0  0  0
   -0.4750    2.5162    1.6699 C   0  0  0  0  0  3  0  0  0  0  0  0
   -0.8738    2.6162    2.7066 H   0  0  0  0  0  0  0  0  0  0  0  0
   -0.6807   -2.8542    1.2679 C   0  0  0  0  0  0  0  0  0  0  0  0
    0.6498   -2.3578    1.4705 C   0  0  0  0  0  0  0  0  0  0  0  0
    1.7433   -3.1065    0.9797 C   0  0  0  0  0  0  0  0  0  0  0  0
    2.7744   -2.7495    1.1240 H   0  0  0  0  0  0  0  0  0  0  0  0
    1.4920   -4.2982    0.2913 C   0  0  0  0  0  0  0  0  0  0  0  0
    2.3345   -4.8887   -0.0999 H   0  0  0  0  0  0  0  0  0  0  0  0
    0.1672   -4.7645    0.0910 C   0  0  0  0  0  0  0  0  0  0  0  0
    0.0035   -5.7058   -0.4553 H   0  0  0  0  0  0  0  0  0  0  0  0
   -0.9347   -4.0522    0.5779 C   0  0  0  0  0  0  0  0  0  0  0  0
   -1.9639   -4.4032    0.4129 H   0  0  0  0  0  0  0  0  0  0  0  0
   -0.8250   -0.8689    2.3254 C   0  0  0  0  0  0  0  0  0  0  0  0
   -1.3523   -0.0164    2.7662 H   0  0  0  0  0  0  0  0  0  0  0  0
    0.5360   -1.0838    2.1418 C   0  0  0  0  0  0  0  0  0  0  0  0
    1.6821   -0.1787    2.4894 C   0  0  0  0  0  0  0  0  0  0  0  0
    2.4439   -0.2399    1.6817 H   0  0  0  0  0  0  0  0  0  0  0  0
    2.2050   -0.5261    3.4083 H   0  0  0  0  0  0  0  0  0  0  0  0
    1.3037    1.2938    2.6884 C   0  0  0  0  0  0  0  0  0  0  0  0
    0.6621    1.4201    3.5919 H   0  0  0  0  0  0  0  0  0  0  0  0
    2.2368    1.8726    2.8627 H   0  0  0  0  0  0  0  0  0  0  0  0
    0.1974    2.7375   -1.2522 O   0  5  0  0  0  0  0  0  0  0  0  0
  1 14  1  0  0  0  0
  1 32  1  0  0  0  0
  2 26  1  0  0  0  0
  3  2  1  0  0  0  0
  4 13  1  0  0  0  0
  5  7  1  0  0  0  0
  5  4  2  0  0  0  0
  6  5  1  0  0  0  0
  7  9  2  0  0  0  0
  8  7  1  0  0  0  0
  9 10  1  0  0  0  0
  9 11  1  0  0  0  0
 11 12  1  0  0  0  0
 13 11  2  0  0  0  0
 13 14  1  0  0  0  0
 14 15  1  0  0  0  0
 16 17  1  0  0  0  0
 16  2  1  0  0  0  0
 17 28  1  0  0  0  0
 18 19  1  0  0  0  0
 18 17  2  0  0  0  0
 20 18  1  0  0  0  0
 21 20  1  0  0  0  0
 22 20  2  0  0  0  0
 22 24  1  0  0  0  0
 23 22  1  0  0  0  0
 24 16  2  0  0  0  0
 25 24  1  0  0  0  0
 26 27  1  0  0  0  0
 28 26  2  0  0  0  0
 28 29  1  0  0  0  0
 29 32  1  0  0  0  0
 29 31  1  0  0  0  0
 30 29  1  0  0  0  0
 32 34  1  0  0  0  0
 32 33  1  0  0  0  0
 35  4  1  0  0  0  0
M  CHG  1  35  -1
M  END
