1,3
 OpenBabel05122313063D

 13 13  0  0  1  0  0  0  0  0999 V2000
   -0.7772    1.8420   -0.2357 O   0  5  0  0  0  0  0  0  0  0  0  0
   -2.7309    2.9358   -0.5291 O   0  0  0  0  0  0  0  0  0  0  0  0
   -1.9982   -0.5095   -0.0143 N   0  0  0  0  0  2  0  0  0  0  0  0
   -2.8047    0.5665   -0.1987 C   0  0  2  0  0  3  0  0  0  0  0  0
   -4.1921    0.4221   -0.2883 C   0  0  0  0  0  0  0  0  0  0  0  0
   -4.7419   -0.8645   -0.1826 C   0  0  0  0  0  0  0  0  0  0  0  0
   -3.8893   -1.9660    0.0034 C   0  0  0  0  0  0  0  0  0  0  0  0
   -2.5072   -1.7564    0.0854 C   0  0  0  0  0  0  0  0  0  0  0  0
   -2.1103    1.9119   -0.3266 C   0  0  0  0  0  0  0  0  0  0  0  0
   -4.7993    1.3269   -0.4383 H   0  0  0  0  0  0  0  0  0  0  0  0
   -5.8307   -1.0108   -0.2449 H   0  0  0  0  0  0  0  0  0  0  0  0
   -4.2858   -2.9876    0.0884 H   0  0  0  0  0  0  0  0  0  0  0  0
   -1.7814   -2.5722    0.2295 H   0  0  0  0  0  0  0  0  0  0  0  0
  2  9  2  0  0  0  0
  3  8  1  0  0  0  0
  4  9  1  6  0  0  0
  4  3  1  0  0  0  0
  5  4  1  0  0  0  0
  5  6  2  0  0  0  0
  6  7  1  0  0  0  0
  7  8  2  0  0  0  0
  7 12  1  0  0  0  0
  8 13  1  0  0  0  0
  9  1  1  0  0  0  0
 10  5  1  0  0  0  0
 11  6  1  0  0  0  0
M  CHG  1   1  -1
M  END
