3,4
 OpenBabel05122313063D

 21 22  0  0  1  0  0  0  0  0999 V2000
   -2.0934    1.0134    2.6384 S   0  0  0  0  0  0  0  0  0  0  0  0
    0.4281    2.5463    3.4836 S   0  0  0  0  0  0  0  0  0  0  0  0
   -1.5570   -1.9624   -0.9397 O   0  5  0  0  0  0  0  0  0  0  0  0
   -0.6580   -0.0333    0.7841 N   0  0  0  0  0  2  0  0  0  0  0  0
    0.1953    0.7607    1.4589 N   0  0  0  0  0  0  0  0  0  0  0  0
   -2.7512   -1.7514   -0.4043 C   0  0  0  0  0  0  0  0  0  0  0  0
   -3.8414   -2.5005   -0.9142 C   0  0  0  0  0  0  0  0  0  0  0  0
   -3.6263   -3.1973   -1.7366 H   0  0  0  0  0  0  0  0  0  0  0  0
   -5.1269   -2.3513   -0.3939 C   0  0  0  0  0  0  0  0  0  0  0  0
   -5.9561   -2.9424   -0.8110 H   0  0  0  0  0  0  0  0  0  0  0  0
   -5.3644   -1.4432    0.6568 C   0  0  0  0  0  0  0  0  0  0  0  0
   -6.3764   -1.3172    1.0676 H   0  0  0  0  0  0  0  0  0  0  0  0
   -4.3045   -0.6975    1.1738 C   0  0  0  0  0  0  0  0  0  0  0  0
   -4.4925    0.0154    1.9924 H   0  0  0  0  0  0  0  0  0  0  0  0
   -2.9884   -0.8267    0.6692 C   0  0  0  0  0  0  0  0  0  0  0  0
   -1.9001   -0.0527    1.2388 C   0  0  2  0  0  3  0  0  0  0  0  0
   -0.3862    1.3973    2.4525 C   0  0  0  0  0  0  0  0  0  0  0  0
    2.0563    2.5323    2.6647 C   0  0  0  0  0  0  0  0  0  0  0  0
    2.6619    3.2877    3.1993 H   0  0  0  0  0  0  0  0  0  0  0  0
    1.9451    2.7987    1.5965 H   0  0  0  0  0  0  0  0  0  0  0  0
    2.5206    1.5321    2.7464 H   0  0  0  0  0  0  0  0  0  0  0  0
  3  6  1  0  0  0  0
  4 16  1  0  0  0  0
  4  5  1  0  0  0  0
  5 17  2  0  0  0  0
  6 15  1  0  0  0  0
  7  6  2  0  0  0  0
  7  9  1  0  0  0  0
  8  7  1  0  0  0  0
  9 11  2  0  0  0  0
 10  9  1  0  0  0  0
 11 12  1  0  0  0  0
 11 13  1  0  0  0  0
 13 14  1  0  0  0  0
 15 13  2  0  0  0  0
 16 15  1  6  0  0  0
 16  1  1  0  0  0  0
 17  1  1  0  0  0  0
 17  2  1  0  0  0  0
 18 21  1  0  0  0  0
 18 19  1  0  0  0  0
 18  2  1  0  0  0  0
 20 18  1  0  0  0  0
M  CHG  1   3  -1
M  END
