2,4
 OpenBabel05122313063D

 16 16  0  0  0  0  0  0  0  0999 V2000
   -4.6128   -0.1122   -0.0238 C   0  0  0  0  0  0  0  0  0  0  0  0
   -3.2301   -1.9736    0.4025 O   0  5  0  0  0  0  0  0  0  0  0  0
   -4.3939   -1.5448    0.3503 C   0  0  0  0  0  0  0  0  0  0  0  0
   -3.4675    0.5982   -0.1657 N   0  0  0  0  0  2  0  0  0  0  0  0
   -5.8735    0.4729   -0.2381 C   0  0  0  0  0  0  0  0  0  0  0  0
   -6.7924   -0.1181   -0.1210 H   0  0  0  0  0  0  0  0  0  0  0  0
   -5.9318    1.8219   -0.6152 C   0  0  0  0  0  0  0  0  0  0  0  0
   -6.9028    2.3073   -0.7927 H   0  0  0  0  0  0  0  0  0  0  0  0
   -5.5619   -2.4402    0.6426 C   0  0  0  0  0  0  0  0  0  0  0  0
   -5.1933   -3.4398    0.9316 H   0  0  0  0  0  0  0  0  0  0  0  0
   -6.2121   -2.5348   -0.2521 H   0  0  0  0  0  0  0  0  0  0  0  0
   -6.1879   -2.0216    1.4573 H   0  0  0  0  0  0  0  0  0  0  0  0
   -3.5156    1.8858   -0.5351 C   0  0  0  0  0  0  0  0  0  0  0  0
   -2.5445    2.3931   -0.6457 H   0  0  0  0  0  0  0  0  0  0  0  0
   -4.7360    2.5397   -0.7685 C   0  0  0  0  0  0  0  0  0  0  0  0
   -4.7399    3.5979   -1.0661 H   0  0  0  0  0  0  0  0  0  0  0  0
  1  3  2  0  0  0  0
  3  2  1  0  0  0  0
  3  9  1  0  0  0  0
  4  1  1  0  0  0  0
  5  6  1  0  0  0  0
  5  1  1  0  0  0  0
  7  5  2  0  0  0  0
  8  7  1  0  0  0  0
  9 10  1  0  0  0  0
  9 12  1  0  0  0  0
 11  9  1  0  0  0  0
 13  4  1  0  0  0  0
 14 13  1  0  0  0  0
 15  7  1  0  0  0  0
 15 13  2  0  0  0  0
 16 15  1  0  0  0  0
M  CHG  1   2  -1
M  END
