2,13
 OpenBabel05122313063D

 15 14  0  0  0  0  0  0  0  0999 V2000
    2.5521   -0.0429    1.0480 C   0  0  0  0  0  0  0  0  0  0  0  0
    1.3027   -0.1421    1.4308 O   0  5  0  0  0  0  0  0  0  0  0  0
    3.5100    0.0556    1.8050 O   0  0  0  0  0  0  0  0  0  0  0  0
    2.7849    0.0248   -0.4977 C   0  0  0  0  0  0  0  0  0  0  0  0
    3.0287    1.4940   -0.8598 C   0  0  0  0  0  0  0  0  0  0  0  0
    3.2464    1.6091   -1.9437 H   0  0  0  0  0  0  0  0  0  0  0  0
    3.8957    1.8709   -0.2860 H   0  0  0  0  0  0  0  0  0  0  0  0
    2.1473    2.1135   -0.6019 H   0  0  0  0  0  0  0  0  0  0  0  0
    3.9760   -0.8556   -0.8771 C   0  0  0  0  0  0  0  0  0  0  0  0
    3.7576   -1.9225   -0.6675 H   0  0  0  0  0  0  0  0  0  0  0  0
    4.8410   -0.5636   -0.2521 H   0  0  0  0  0  0  0  0  0  0  0  0
    4.2415   -0.7448   -1.9492 H   0  0  0  0  0  0  0  0  0  0  0  0
    1.5436   -0.4417   -1.1860 N   0  0  0  0  0  0  0  0  0  0  0  0
    1.5416   -1.4780   -1.2711 H   0  0  0  0  0  0  0  0  0  0  0  0
    1.4752   -0.0479   -2.1346 H   0  0  0  0  0  0  0  0  0  0  0  0
  1  2  1  0  0  0  0
  1  3  2  0  0  0  0
  4  1  1  0  0  0  0
  5  8  1  0  0  0  0
  5  4  1  0  0  0  0
  5  7  1  0  0  0  0
  6  5  1  0  0  0  0
  9 10  1  0  0  0  0
  9  4  1  0  0  0  0
  9 11  1  0  0  0  0
 12  9  1  0  0  0  0
 13  4  1  0  0  0  0
 14 13  1  0  0  0  0
 15 13  1  0  0  0  0
M  CHG  1   2  -1
M  END
