1,6
 OpenBabel05122313063D

 14 14  0  0  1  0  0  0  0  0999 V2000
    0.7596    1.4856   -0.8340 O   0  0  0  0  0  1  0  0  0  0  0  0
    2.2559    1.7075   -0.6072 S   0  0  0  0  0  0  0  0  0  0  0  0
    3.0078    2.2629   -1.7430 O   0  0  0  0  0  1  0  0  0  0  0  0
    2.4972    2.3629    0.7369 O   0  0  0  0  0  1  0  0  0  0  0  0
    2.8405   -0.0058   -0.3562 C   0  0  2  0  0  3  0  0  0  0  0  0
    1.9679   -0.8056    0.2764 N   0  0  0  0  0  2  0  0  0  0  0  0
    2.3070   -2.0803    0.5421 C   0  0  0  0  0  0  0  0  0  0  0  0
    3.5590   -2.5930    0.1794 C   0  0  0  0  0  0  0  0  0  0  0  0
    4.4704   -1.7542   -0.4835 C   0  0  0  0  0  0  0  0  0  0  0  0
    4.1101   -0.4276   -0.7615 C   0  0  0  0  0  0  0  0  0  0  0  0
    4.7685    0.2741   -1.2923 H   0  0  0  0  0  0  0  0  0  0  0  0
    5.4561   -2.1363   -0.7899 H   0  0  0  0  0  0  0  0  0  0  0  0
    3.8086   -3.6393    0.4052 H   0  0  0  0  0  0  0  0  0  0  0  0
    1.5417   -2.6843    1.0540 H   0  0  0  0  0  0  0  0  0  0  0  0
  1  2  1  0  0  0  0
  2  4  1  0  0  0  0
  3  2  1  0  0  0  0
  5  2  1  1  0  0  0
  5  6  1  0  0  0  0
  6  7  1  0  0  0  0
  7 14  1  0  0  0  0
  8 13  1  0  0  0  0
  8  7  2  0  0  0  0
  9  8  1  0  0  0  0
 10  9  2  0  0  0  0
 10  5  1  0  0  0  0
 11 10  1  0  0  0  0
 12  9  1  0  0  0  0
M  END
