1,2
 OpenBabel05122313063D

 20 21  0  0  0  0  0  0  0  0999 V2000
    0.5225    0.5497   -1.5585 O   0  5  0  0  0  0  0  0  0  0  0  0
    2.1301   -0.4241    0.3874 N   0  0  0  0  0  2  0  0  0  0  0  0
    2.9257   -1.0203    1.2939 C   0  0  0  0  0  0  0  0  0  0  0  0
    2.6252    0.5586   -0.4482 C   0  0  0  0  0  0  0  0  0  0  0  0
    3.9687    1.0464   -0.3433 C   0  0  0  0  0  0  0  0  0  0  0  0
    2.2163    2.0568   -2.3290 C   0  0  0  0  0  0  0  0  0  0  0  0
    1.7374    1.0585   -1.4620 C   0  0  0  0  0  0  0  0  0  0  0  0
    4.2694   -0.5672    1.4463 C   0  0  0  0  0  0  0  0  0  0  0  0
    4.4093    2.0626   -1.2344 C   0  0  0  0  0  3  0  0  0  0  0  0
    2.4243   -2.1716    2.1048 C   0  0  0  0  0  0  0  0  0  0  0  0
    4.7783    0.4512    0.6617 C   0  0  0  0  0  0  0  0  0  0  0  0
    3.5345    2.5479   -2.2035 C   0  0  0  0  0  0  0  0  0  0  0  0
    5.8149    0.7977    0.7959 H   0  0  0  0  0  0  0  0  0  0  0  0
    4.8925   -1.0555    2.2086 H   0  0  0  0  0  0  0  0  0  0  0  0
    5.4361    2.4459   -1.1470 H   0  0  0  0  0  0  0  0  0  0  0  0
    1.5379    2.4390   -3.1048 H   0  0  0  0  0  0  0  0  0  0  0  0
    3.8743    3.3327   -2.8968 H   0  0  0  0  0  0  0  0  0  0  0  0
    3.1692   -2.4663    2.8658 H   0  0  0  0  0  0  0  0  0  0  0  0
    2.2320   -3.0479    1.4502 H   0  0  0  0  0  0  0  0  0  0  0  0
    1.4505   -1.9352    2.5824 H   0  0  0  0  0  0  0  0  0  0  0  0
  1  7  1  0  0  0  0
  2  3  1  0  0  0  0
  3  8  2  0  0  0  0
  3 10  1  0  0  0  0
  4  5  1  0  0  0  0
  4  2  1  0  0  0  0
  5 11  2  0  0  0  0
  6 12  2  0  0  0  0
  6  7  1  0  0  0  0
  7  4  2  0  0  0  0
  8 14  1  0  0  0  0
  9 15  1  0  0  0  0
  9  5  1  0  0  0  0
 10 20  1  0  0  0  0
 10 18  1  0  0  0  0
 11 13  1  0  0  0  0
 11  8  1  0  0  0  0
 12  9  1  0  0  0  0
 16  6  1  0  0  0  0
 17 12  1  0  0  0  0
 19 10  1  0  0  0  0
M  CHG  1   1  -1
M  END
