4,5
 OpenBabel05122313063D

 31 31  0  0  1  0  0  0  0  0999 V2000
    4.1248    1.8201    0.5874 F   0  0  0  0  0  0  0  0  0  0  0  0
    3.7296    3.6234   -0.5802 F   0  0  0  0  0  0  0  0  0  0  0  0
    3.9048    1.6881   -1.5796 F   0  0  0  0  0  0  0  0  0  0  0  0
    1.6707    0.7974   -0.2415 O   0  5  0  0  0  0  0  0  0  0  0  0
   -0.9278    1.7067   -0.0017 N   0  0  0  0  0  2  0  0  0  0  0  0
   -2.3392    1.6473    0.2387 C   0  0  0  0  0  0  0  0  0  0  0  0
   -2.7976    1.5335    1.5730 C   0  0  0  0  0  0  0  0  0  0  0  0
   -4.1840    1.4566    1.7957 C   0  0  0  0  0  0  0  0  0  0  0  0
   -4.5544    1.3659    2.8288 H   0  0  0  0  0  0  0  0  0  0  0  0
   -5.0869    1.4757    0.7243 C   0  0  0  0  0  0  0  0  0  0  0  0
   -6.1684    1.4067    0.9149 H   0  0  0  0  0  0  0  0  0  0  0  0
   -4.6110    1.5575   -0.5910 C   0  0  0  0  0  0  0  0  0  0  0  0
   -5.3169    1.5389   -1.4359 H   0  0  0  0  0  0  0  0  0  0  0  0
   -3.2329    1.6350   -0.8586 C   0  0  0  0  0  0  0  0  0  0  0  0
   -1.8108    1.4536    2.7076 C   0  0  0  0  0  0  0  0  0  0  0  0
   -2.3232    1.3126    3.6778 H   0  0  0  0  0  0  0  0  0  0  0  0
   -1.1775    2.3629    2.7810 H   0  0  0  0  0  0  0  0  0  0  0  0
   -1.1114    0.6043    2.5520 H   0  0  0  0  0  0  0  0  0  0  0  0
   -2.7034    1.6364   -2.2665 C   0  0  0  0  0  0  0  0  0  0  0  0
   -2.0503    2.5093   -2.4744 H   0  0  0  0  0  0  0  0  0  0  0  0
   -3.5268    1.6360   -3.0053 H   0  0  0  0  0  0  0  0  0  0  0  0
   -2.0834    0.7306   -2.4334 H   0  0  0  0  0  0  0  0  0  0  0  0
   -0.3600    2.9121   -0.0484 C   0  0  2  0  0  3  0  0  0  0  0  0
    1.0415    3.1066   -0.2311 C   0  0  0  0  0  0  0  0  0  0  0  0
    1.4269    4.1304   -0.2882 H   0  0  0  0  0  0  0  0  0  0  0  0
    1.9382    2.0528   -0.3051 C   0  0  0  0  0  0  0  0  0  0  0  0
   -1.2161    4.1486    0.1101 C   0  0  0  0  0  0  0  0  0  0  0  0
   -2.0175    4.1770   -0.6548 H   0  0  0  0  0  0  0  0  0  0  0  0
   -0.6067    5.0663    0.0295 H   0  0  0  0  0  0  0  0  0  0  0  0
   -1.7322    4.1445    1.0913 H   0  0  0  0  0  0  0  0  0  0  0  0
    3.4406    2.3065   -0.4695 C   0  0  0  0  0  0  0  0  0  0  0  0
  2 31  1  0  0  0  0
  3 31  1  0  0  0  0
  5  6  1  0  0  0  0
  6  7  1  0  0  0  0
  7  8  2  0  0  0  0
  7 15  1  0  0  0  0
  8  9  1  0  0  0  0
 10 11  1  0  0  0  0
 10  8  1  0  0  0  0
 12 10  2  0  0  0  0
 13 12  1  0  0  0  0
 14 12  1  0  0  0  0
 14  6  2  0  0  0  0
 15 17  1  0  0  0  0
 15 16  1  0  0  0  0
 18 15  1  0  0  0  0
 19 14  1  0  0  0  0
 20 19  1  0  0  0  0
 21 19  1  0  0  0  0
 22 19  1  0  0  0  0
 23 24  1  1  0  0  0
 23  5  1  0  0  0  0
 23 27  1  0  0  0  0
 25 24  1  0  0  0  0
 26  4  1  0  0  0  0
 26 24  2  0  0  0  0
 27 30  1  0  0  0  0
 28 27  1  0  0  0  0
 29 27  1  0  0  0  0
 31 26  1  0  0  0  0
 31  1  1  0  0  0  0
M  CHG  1   4  -1
M  END
