1,3
 OpenBabel05122313063D

 15 15  0  0  0  0  0  0  0  0999 V2000
    0.9357   -2.3216   -0.0872 O   0  5  0  0  0  0  0  0  0  0  0  0
    2.8950   -3.2973   -0.6757 O   0  0  0  0  0  0  0  0  0  0  0  0
    2.0971    0.1503   -0.1912 N   0  0  0  0  0  2  0  0  0  0  0  0
    4.7038    0.4648   -1.1012 N   0  0  0  0  0  0  0  0  0  0  0  0
    2.6414    1.3736   -0.2815 C   0  0  0  0  0  3  0  0  0  0  0  0
    1.9982    2.2171    0.0209 H   0  0  0  0  0  0  0  0  0  0  0  0
    3.9645    1.5380   -0.7456 C   0  0  0  0  0  0  0  0  0  0  0  0
    4.1420   -0.7450   -0.9997 C   0  0  0  0  0  0  0  0  0  0  0  0
    4.7336   -1.6312   -1.2826 H   0  0  0  0  0  0  0  0  0  0  0  0
    2.8208   -0.9269   -0.5446 C   0  0  0  0  0  0  0  0  0  0  0  0
    2.1932   -2.3187   -0.4330 C   0  0  0  0  0  0  0  0  0  0  0  0
    4.5986    2.8935   -0.8624 C   0  0  0  0  0  0  0  0  0  0  0  0
    4.9164    3.0747   -1.9093 H   0  0  0  0  0  0  0  0  0  0  0  0
    5.5170    2.9376   -0.2422 H   0  0  0  0  0  0  0  0  0  0  0  0
    3.9120    3.7016   -0.5489 H   0  0  0  0  0  0  0  0  0  0  0  0
  2 11  2  0  0  0  0
  4  8  1  0  0  0  0
  4  7  2  0  0  0  0
  5  3  1  0  0  0  0
  5  6  1  0  0  0  0
  7  5  1  0  0  0  0
  8 10  2  0  0  0  0
  9  8  1  0  0  0  0
 10 11  1  0  0  0  0
 10  3  1  0  0  0  0
 11  1  1  0  0  0  0
 12  7  1  0  0  0  0
 12 15  1  0  0  0  0
 12 14  1  0  0  0  0
 13 12  1  0  0  0  0
M  CHG  1   1  -1
M  END
