1,2
 OpenBabel05122313063D

 27 27  0  0  0  0  0  0  0  0999 V2000
   -1.6414    0.5453   -0.9945 O   0  5  0  0  0  0  0  0  0  0  0  0
   -0.8173   -1.5669    0.8824 N   0  0  0  0  0  2  0  0  0  0  0  0
   -2.1084   -1.7675    0.8600 C   0  0  0  0  0  3  0  0  0  0  0  0
   -2.4961   -2.6310    1.4480 H   0  0  0  0  0  0  0  0  0  0  0  0
   -3.1166   -1.0178    0.1565 C   0  0  0  0  0  0  0  0  0  0  0  0
   -4.4667   -1.4359    0.3541 C   0  0  0  0  0  0  0  0  0  0  0  0
   -4.6555   -2.2725    1.0468 H   0  0  0  0  0  0  0  0  0  0  0  0
   -5.5207   -0.8207   -0.3025 C   0  0  0  0  0  0  0  0  0  0  0  0
   -6.5559   -1.1529   -0.1393 H   0  0  0  0  0  0  0  0  0  0  0  0
   -5.2425    0.2408   -1.1977 C   0  0  0  0  0  0  0  0  0  0  0  0
   -6.0753    0.7309   -1.7287 H   0  0  0  0  0  0  0  0  0  0  0  0
   -3.9453    0.6914   -1.4360 C   0  0  0  0  0  0  0  0  0  0  0  0
   -2.8337    0.0759   -0.7528 C   0  0  0  0  0  0  0  0  0  0  0  0
   -3.6432    1.8176   -2.3837 C   0  0  0  0  0  0  0  0  0  0  0  0
   -4.5574    2.1711   -2.8979 H   0  0  0  0  0  0  0  0  0  0  0  0
   -2.8968    1.5068   -3.1435 H   0  0  0  0  0  0  0  0  0  0  0  0
   -3.1848    2.6772   -1.8498 H   0  0  0  0  0  0  0  0  0  0  0  0
    0.0449   -2.5272    1.5834 C   0  0  0  0  0  0  0  0  0  0  0  0
   -0.5988   -3.1551    2.2451 H   0  0  0  0  0  0  0  0  0  0  0  0
    1.0638   -1.7817    2.4496 C   0  0  0  0  0  0  0  0  0  0  0  0
    1.7353   -1.1611    1.8210 H   0  0  0  0  0  0  0  0  0  0  0  0
    1.6949   -2.5004    3.0087 H   0  0  0  0  0  0  0  0  0  0  0  0
    0.5600   -1.1186    3.1805 H   0  0  0  0  0  0  0  0  0  0  0  0
    0.7265   -3.4355    0.5507 C   0  0  0  0  0  0  0  0  0  0  0  0
   -0.0257   -4.0199   -0.0154 H   0  0  0  0  0  0  0  0  0  0  0  0
    1.4185   -4.1433    1.0495 H   0  0  0  0  0  0  0  0  0  0  0  0
    1.3003   -2.8184   -0.1707 H   0  0  0  0  0  0  0  0  0  0  0  0
  1 13  1  0  0  0  0
  2 18  1  0  0  0  0
  3  2  1  0  0  0  0
  3  4  1  0  0  0  0
  5  6  1  0  0  0  0
  5  3  1  0  0  0  0
  6  7  1  0  0  0  0
  8  9  1  0  0  0  0
  8  6  2  0  0  0  0
 10  8  1  0  0  0  0
 11 10  1  0  0  0  0
 12 10  2  0  0  0  0
 12 13  1  0  0  0  0
 13  5  2  0  0  0  0
 14 17  1  0  0  0  0
 14 12  1  0  0  0  0
 15 14  1  0  0  0  0
 16 14  1  0  0  0  0
 18 19  1  0  0  0  0
 18 20  1  0  0  0  0
 20 22  1  0  0  0  0
 20 23  1  0  0  0  0
 21 20  1  0  0  0  0
 24 26  1  0  0  0  0
 24 18  1  0  0  0  0
 25 24  1  0  0  0  0
 27 24  1  0  0  0  0
M  CHG  1   1  -1
M  END
