1,2
 OpenBabel05122313063D

 34 35  0  0  0  0  0  0  0  0999 V2000
   -1.9010   -0.5634    1.2618 O   0  5  0  0  0  0  0  0  0  0  0  0
    0.4083   -1.5131   -0.2263 N   0  0  0  0  0  2  0  0  0  0  0  0
   -2.3067   -1.8040    1.1361 C   0  0  0  0  0  0  0  0  0  0  0  0
   -3.5680   -2.1602    1.7012 C   0  0  0  0  0  0  0  0  0  0  0  0
   -4.1381   -1.3620    2.1984 H   0  0  0  0  0  0  0  0  0  0  0  0
   -4.0622   -3.4564    1.6143 C   0  0  0  0  0  0  0  0  0  0  0  0
   -5.0463   -3.6888    2.0499 H   0  0  0  0  0  0  0  0  0  0  0  0
   -3.3183   -4.4804    0.9766 C   0  0  0  0  0  0  0  0  0  0  0  0
   -3.7143   -5.5040    0.9195 H   0  0  0  0  0  0  0  0  0  0  0  0
   -2.0761   -4.1723    0.4421 C   0  0  0  0  0  0  0  0  0  0  0  0
   -1.4710   -4.9592   -0.0363 H   0  0  0  0  0  0  0  0  0  0  0  0
   -1.5420   -2.8492    0.4910 C   0  0  0  0  0  0  0  0  0  0  0  0
   -0.2168   -2.6563   -0.0231 C   0  0  0  0  0  3  0  0  0  0  0  0
    0.3497   -3.5783   -0.2620 H   0  0  0  0  0  0  0  0  0  0  0  0
    1.8193   -1.5692   -0.5080 C   0  0  0  0  0  0  0  0  0  0  0  0
    2.7290   -1.8082    0.5519 C   0  0  0  0  0  0  0  0  0  0  0  0
    4.1094   -1.6748    0.2920 C   0  0  0  0  0  0  0  0  0  0  0  0
    4.8160   -1.8367    1.1222 H   0  0  0  0  0  0  0  0  0  0  0  0
    4.6082   -1.3546   -0.9787 C   0  0  0  0  0  0  0  0  0  0  0  0
    3.6787   -1.2187   -2.0300 C   0  0  0  0  0  0  0  0  0  0  0  0
    4.0445   -1.0272   -3.0517 H   0  0  0  0  0  0  0  0  0  0  0  0
    2.2963   -1.3315   -1.8255 C   0  0  0  0  0  0  0  0  0  0  0  0
    2.2852   -2.2463    1.9250 C   0  0  0  0  0  0  0  0  0  0  0  0
    2.4427   -3.3392    2.0447 H   0  0  0  0  0  0  0  0  0  0  0  0
    1.2166   -2.0526    2.1195 H   0  0  0  0  0  0  0  0  0  0  0  0
    2.8816   -1.7504    2.7155 H   0  0  0  0  0  0  0  0  0  0  0  0
    6.0848   -1.1945   -1.2334 C   0  0  0  0  0  0  0  0  0  0  0  0
    6.4487   -1.9421   -1.9684 H   0  0  0  0  0  0  0  0  0  0  0  0
    6.6780   -1.3161   -0.3071 H   0  0  0  0  0  0  0  0  0  0  0  0
    6.3140   -0.1952   -1.6590 H   0  0  0  0  0  0  0  0  0  0  0  0
    1.3553   -1.2759   -2.9985 C   0  0  0  0  0  0  0  0  0  0  0  0
    0.8772   -2.2643   -3.1690 H   0  0  0  0  0  0  0  0  0  0  0  0
    1.8909   -1.0020   -3.9265 H   0  0  0  0  0  0  0  0  0  0  0  0
    0.5383   -0.5476   -2.8457 H   0  0  0  0  0  0  0  0  0  0  0  0
  2 13  1  0  0  0  0
  3  1  1  0  0  0  0
  3  4  1  0  0  0  0
  4  5  1  0  0  0  0
  6  4  2  0  0  0  0
  6  7  1  0  0  0  0
  8  6  1  0  0  0  0
  9  8  1  0  0  0  0
 10 12  1  0  0  0  0
 10  8  2  0  0  0  0
 11 10  1  0  0  0  0
 12  3  2  0  0  0  0
 13 12  1  0  0  0  0
 14 13  1  0  0  0  0
 15  2  1  0  0  0  0
 15 16  1  0  0  0  0
 16 23  1  0  0  0  0
 17 16  2  0  0  0  0
 17 18  1  0  0  0  0
 19 17  1  0  0  0  0
 20 22  1  0  0  0  0
 20 19  2  0  0  0  0
 21 20  1  0  0  0  0
 22 15  2  0  0  0  0
 23 24  1  0  0  0  0
 23 25  1  0  0  0  0
 23 26  1  0  0  0  0
 27 19  1  0  0  0  0
 27 29  1  0  0  0  0
 28 27  1  0  0  0  0
 30 27  1  0  0  0  0
 31 34  1  0  0  0  0
 31 22  1  0  0  0  0
 32 31  1  0  0  0  0
 33 31  1  0  0  0  0
M  CHG  1   1  -1
M  END
