1,12
 OpenBabel05122313063D

 22 23  0  0  0  0  0  0  0  0999 V2000
   -0.6095    1.3461    0.0001 N   0  0  0  0  0  2  0  0  0  0  0  0
   -1.2203    2.5677    0.0000 C   0  0  0  0  0  0  0  0  0  0  0  0
   -2.3196    2.5467    0.0001 H   0  0  0  0  0  0  0  0  0  0  0  0
   -0.5172    3.7606   -0.0001 C   0  0  0  0  0  0  0  0  0  0  0  0
   -1.0696    4.7111   -0.0001 H   0  0  0  0  0  0  0  0  0  0  0  0
    0.9030    3.7300   -0.0001 C   0  0  0  0  0  0  0  0  0  0  0  0
    1.4818    4.6652   -0.0002 H   0  0  0  0  0  0  0  0  0  0  0  0
    1.5480    2.5037   -0.0000 C   0  0  0  0  0  0  0  0  0  0  0  0
    2.6407    2.3922   -0.0000 H   0  0  0  0  0  0  0  0  0  0  0  0
    0.7912    1.2999    0.0001 C   0  0  0  0  0  0  0  0  0  0  0  0
    1.2836   -0.0435    0.0001 C   0  0  0  0  0  0  0  0  0  0  0  0
    0.3649   -0.9757    0.0002 O   0  5  0  0  0  0  0  0  0  0  0  0
    2.6856   -0.4865    0.0001 C   0  0  0  0  0  0  0  0  0  0  0  0
    3.6786    0.4374   -0.0000 N   0  0  0  0  0  0  0  0  0  0  0  0
    4.9466    0.0120   -0.0001 C   0  0  0  0  0  0  0  0  0  0  0  0
    5.7227    0.7989   -0.0002 H   0  0  0  0  0  0  0  0  0  0  0  0
    5.3187   -1.3424   -0.0001 C   0  0  0  0  0  0  0  0  0  0  0  0
    6.3800   -1.6309   -0.0002 H   0  0  0  0  0  0  0  0  0  0  0  0
    4.2932   -2.3040   -0.0000 C   0  0  0  0  0  0  0  0  0  0  0  0
    4.5325   -3.3787   -0.0000 H   0  0  0  0  0  0  0  0  0  0  0  0
    2.9641   -1.8796    0.0001 C   0  0  0  0  0  0  0  0  0  0  0  0
    2.1252   -2.5881    0.0001 H   0  0  0  0  0  0  0  0  0  0  0  0
  2  3  1  0  0  0  0
  2  1  1  0  0  0  0
  4  2  2  0  0  0  0
  5  4  1  0  0  0  0
  6  4  1  0  0  0  0
  6  8  2  0  0  0  0
  7  6  1  0  0  0  0
  8 10  1  0  0  0  0
  9  8  1  0  0  0  0
 10  1  1  0  0  0  0
 10 11  2  0  0  0  0
 11 12  1  0  0  0  0
 13 11  1  0  0  0  0
 14 13  2  0  0  0  0
 15 17  2  0  0  0  0
 15 14  1  0  0  0  0
 16 15  1  0  0  0  0
 17 19  1  0  0  0  0
 18 17  1  0  0  0  0
 19 21  2  0  0  0  0
 20 19  1  0  0  0  0
 21 13  1  0  0  0  0
 21 22  1  0  0  0  0
M  CHG  1  12  -1
M  END
