2,4
 OpenBabel05122313063D

 33 34  0  0  1  0  0  0  0  0999 V2000
    4.1547    0.4941   -2.4286 S   0  0  0  0  0  0  0  0  0  0  0  0
   -1.7439    0.8999    1.1387 O   0  5  0  0  0  0  0  0  0  0  0  0
    1.5984    3.3319    0.1734 O   0  0  0  0  0  0  0  0  0  0  0  0
    0.8539    1.2252   -0.0291 N   0  0  0  0  0  2  0  0  0  0  0  0
   -1.8230    2.2099    1.0115 C   0  0  0  0  0  0  0  0  0  0  0  0
   -3.0388    2.8488    1.3886 C   0  0  0  0  0  0  0  0  0  0  0  0
   -3.8610    2.2020    1.7273 H   0  0  0  0  0  0  0  0  0  0  0  0
   -3.1774    4.2316    1.3279 C   0  0  0  0  0  0  0  0  0  0  0  0
   -4.1352    4.6918    1.6161 H   0  0  0  0  0  0  0  0  0  0  0  0
   -2.1042    5.0504    0.9045 C   0  0  0  0  0  0  0  0  0  0  0  0
   -2.2193    6.1426    0.8635 H   0  0  0  0  0  0  0  0  0  0  0  0
   -0.8986    4.4582    0.5484 C   0  0  0  0  0  0  0  0  0  0  0  0
   -0.0450    5.0743    0.2328 H   0  0  0  0  0  0  0  0  0  0  0  0
   -0.7362    3.0447    0.5751 C   0  0  0  0  0  0  0  0  0  0  0  0
    0.5550    2.4890    0.2355 C   0  0  1  0  0  3  0  0  0  0  0  0
    2.8334    2.5209    0.1428 C   0  0  0  0  0  0  0  0  0  0  0  0
    2.2923    1.1515   -0.3828 C   0  0  2  0  0  0  0  0  0  0  0  0
    2.7640    0.3239    0.1867 H   0  0  0  0  0  0  0  0  0  0  0  0
    2.4517    0.8694   -1.8845 C   0  0  0  0  0  0  0  0  0  0  0  0
    2.1359    1.7498   -2.4806 H   0  0  0  0  0  0  0  0  0  0  0  0
    1.7867    0.0285   -2.1664 H   0  0  0  0  0  0  0  0  0  0  0  0
    4.3487   -1.1965   -1.7920 C   0  0  0  0  0  0  0  0  0  0  0  0
    5.3684   -1.5173   -2.0793 H   0  0  0  0  0  0  0  0  0  0  0  0
    3.6165   -1.8895   -2.2499 H   0  0  0  0  0  0  0  0  0  0  0  0
    4.2689   -1.2470   -0.6874 H   0  0  0  0  0  0  0  0  0  0  0  0
    3.3137    2.3795    1.5878 C   0  0  0  0  0  0  0  0  0  0  0  0
    3.4976    3.3752    2.0348 H   0  0  0  0  0  0  0  0  0  0  0  0
    4.2589    1.8017    1.6130 H   0  0  0  0  0  0  0  0  0  0  0  0
    2.5633    1.8469    2.2067 H   0  0  0  0  0  0  0  0  0  0  0  0
    3.8297    3.2837   -0.7140 C   0  0  0  0  0  0  0  0  0  0  0  0
    4.0115    4.2755   -0.2559 H   0  0  0  0  0  0  0  0  0  0  0  0
    3.4504    3.4477   -1.7401 H   0  0  0  0  0  0  0  0  0  0  0  0
    4.7869    2.7362   -0.7824 H   0  0  0  0  0  0  0  0  0  0  0  0
  1 19  1  0  0  0  0
  1 22  1  0  0  0  0
  3 15  1  0  0  0  0
  4 15  1  0  0  0  0
  5  2  1  0  0  0  0
  5  6  1  0  0  0  0
  6  7  1  0  0  0  0
  8  6  2  0  0  0  0
  8  9  1  0  0  0  0
 10  8  1  0  0  0  0
 11 10  1  0  0  0  0
 12 14  1  0  0  0  0
 12 10  2  0  0  0  0
 13 12  1  0  0  0  0
 14  5  2  0  0  0  0
 15 14  1  1  0  0  0
 16  3  1  0  0  0  0
 16 26  1  0  0  0  0
 17  4  1  0  0  0  0
 17 16  1  0  0  0  0
 17 18  1  1  0  0  0
 19 17  1  0  0  0  0
 20 19  1  0  0  0  0
 21 19  1  0  0  0  0
 22 25  1  0  0  0  0
 23 22  1  0  0  0  0
 24 22  1  0  0  0  0
 26 28  1  0  0  0  0
 26 27  1  0  0  0  0
 26 29  1  0  0  0  0
 30 31  1  0  0  0  0
 30 16  1  0  0  0  0
 32 30  1  0  0  0  0
 33 30  1  0  0  0  0
M  CHG  1   2  -1
M  END
