1,3
 OpenBabel05122313063D

 13 13  0  0  0  0  0  0  0  0999 V2000
    0.0002    0.8569    2.0973 O   0  0  0  0  0  1  0  0  0  0  0  0
    0.0005    2.8945    2.9316 O   0  0  0  0  0  1  0  0  0  0  0  0
   -0.0000    1.7283   -0.3970 N   0  0  0  0  0  0  0  0  0  0  0  0
   -0.0003    3.8418   -1.2240 N   0  0  0  0  0  0  0  0  0  0  0  0
    0.0004    2.1423    1.9593 N   0  0  0  0  0  0  0  0  0  0  0  0
   -0.0003    2.4985   -1.5057 C   0  0  0  0  0  0  0  0  0  0  0  0
    0.0000    3.9325    0.1196 C   0  0  0  0  0  0  0  0  0  0  0  0
    0.0000    4.8818    0.6698 H   0  0  0  0  0  0  0  0  0  0  0  0
    0.0003    2.6239    0.6514 C   0  0  0  0  0  3  0  0  0  0  0  0
   -0.0004    1.9465   -2.8876 C   0  0  0  0  0  0  0  0  0  0  0  0
   -0.0060    0.8420   -2.8556 H   0  0  0  0  0  0  0  0  0  0  0  0
    0.8981    2.2897   -3.4399 H   0  0  0  0  0  0  0  0  0  0  0  0
   -0.8931    2.2991   -3.4433 H   0  0  0  0  0  0  0  0  0  0  0  0
  3  9  1  0  0  0  0
  4  7  2  0  0  0  0
  5  1  1  0  0  0  0
  5  2  1  0  0  0  0
  6  4  1  0  0  0  0
  6  3  2  0  0  0  0
  7  9  1  0  0  0  0
  7  8  1  0  0  0  0
  9  5  1  0  0  0  0
 10 11  1  0  0  0  0
 10  6  1  0  0  0  0
 12 10  1  0  0  0  0
 13 10  1  0  0  0  0
M  END
