1,5
 OpenBabel05122313063D

 13 13  0  0  0  0  0  0  0  0999 V2000
    1.2882    0.5891   -1.3431 O   0  5  0  0  0  0  0  0  0  0  0  0
    1.1305   -1.3324    2.0418 O   0  0  0  0  0  1  0  0  0  0  0  0
    3.9497   -1.2343    2.1735 O   0  0  0  0  0  0  0  0  0  0  0  0
    5.8730    0.7105   -1.5305 O   0  0  0  0  0  0  0  0  0  0  0  0
    1.2429   -0.6870    0.9911 N   0  0  0  0  0  2  0  0  0  0  0  0
    4.8717   -0.2736    0.3035 N   0  0  0  0  0  0  0  0  0  0  0  0
    5.7970   -0.4702    0.6993 H   0  0  0  0  0  0  0  0  0  0  0  0
    3.5773    0.6419   -1.4199 N   0  0  0  0  0  0  0  0  0  0  0  0
    3.5368    1.1322   -2.3183 H   0  0  0  0  0  0  0  0  0  0  0  0
    2.4096    0.3056   -0.7949 C   0  0  0  0  0  0  0  0  0  0  0  0
    2.4824   -0.3778    0.4591 C   0  0  0  0  0  0  0  0  0  0  0  0
    3.7703   -0.6932    1.0964 C   0  0  0  0  0  0  0  0  0  0  0  0
    4.8760    0.3792   -0.9202 C   0  0  0  0  0  0  0  0  0  0  0  0
  1 10  1  0  0  0  0
  4 13  2  0  0  0  0
  5  2  1  0  0  0  0
  6  7  1  0  0  0  0
  6 12  1  0  0  0  0
  8 13  1  0  0  0  0
  8 10  1  0  0  0  0
  9  8  1  0  0  0  0
 10 11  2  0  0  0  0
 11  5  1  0  0  0  0
 11 12  1  0  0  0  0
 12  3  2  0  0  0  0
 13  6  1  0  0  0  0
M  CHG  1   1  -1
M  END
