1,2
 OpenBabel05122313063D

 17 17  0  0  1  0  0  0  0  0999 V2000
    0.4358    1.9556   -0.0003 O   0  5  0  0  0  0  0  0  0  0  0  0
    2.0023   -0.4748   -0.0003 N   0  0  0  0  0  2  0  0  0  0  0  0
    2.7927    1.8382    0.0011 N   0  0  0  0  0  0  0  0  0  0  0  0
    2.9870    0.4906    0.0003 C   0  0  1  0  0  3  0  0  0  0  0  0
    4.3518    0.0690    0.0002 C   0  0  0  0  0  0  0  0  0  0  0  0
    4.6951   -1.2744   -0.0006 C   0  0  0  0  0  0  0  0  0  0  0  0
    3.6639   -2.2341   -0.0012 C   0  0  0  0  0  0  0  0  0  0  0  0
    2.3468   -1.7895   -0.0010 C   0  0  0  0  0  0  0  0  0  0  0  0
    1.6317    2.4567    0.0007 C   0  0  0  0  0  0  0  0  0  0  0  0
    1.6498    3.9698    0.0015 C   0  0  0  0  0  0  0  0  0  0  0  0
    5.1005    0.8719    0.0007 H   0  0  0  0  0  0  0  0  0  0  0  0
    5.7525   -1.5803   -0.0008 H   0  0  0  0  0  0  0  0  0  0  0  0
    3.8708   -3.3130   -0.0018 H   0  0  0  0  0  0  0  0  0  0  0  0
    1.4965   -2.4869   -0.0014 H   0  0  0  0  0  0  0  0  0  0  0  0
    2.6898    4.3377    0.0025 H   0  0  0  0  0  0  0  0  0  0  0  0
    1.1129    4.3529    0.8931 H   0  0  0  0  0  0  0  0  0  0  0  0
    1.1142    4.3538   -0.8905 H   0  0  0  0  0  0  0  0  0  0  0  0
  1  9  1  0  0  0  0
  2  4  1  0  0  0  0
  4  3  1  1  0  0  0
  5  4  1  0  0  0  0
  5 11  1  0  0  0  0
  6  5  2  0  0  0  0
  7  8  2  0  0  0  0
  7  6  1  0  0  0  0
  8  2  1  0  0  0  0
  9  3  2  0  0  0  0
  9 10  1  0  0  0  0
 10 15  1  0  0  0  0
 10 16  1  0  0  0  0
 12  6  1  0  0  0  0
 13  7  1  0  0  0  0
 14  8  1  0  0  0  0
 17 10  1  0  0  0  0
M  CHG  1   1  -1
M  END
