1,4
 OpenBabel05122313063D

 40 42  0  0  1  0  0  0  0  0999 V2000
   -1.4835    0.9580   -1.2814 O   0  5  0  0  0  0  0  0  0  0  0  0
   -3.1154   -2.1528    1.2579 O   0  0  0  0  0  0  0  0  0  0  0  0
  -11.2675    0.1827    0.0383 O   0  0  0  0  0  0  0  0  0  0  0  0
   -1.1863   -1.2282    0.5847 N   0  0  0  0  0  2  0  0  0  0  0  0
   -2.7546    0.7622   -1.0674 C   0  0  0  0  0  0  0  0  0  0  0  0
   -3.6959    1.6011   -1.7465 C   0  0  0  0  0  0  0  0  0  0  0  0
   -3.2760    2.3472   -2.4371 H   0  0  0  0  0  0  0  0  0  0  0  0
   -5.0647    1.4847   -1.5645 C   0  0  0  0  0  0  0  0  0  0  0  0
   -5.7360    2.1469   -2.1333 H   0  0  0  0  0  0  0  0  0  0  0  0
   -5.6287    0.5122   -0.6882 C   0  0  0  0  0  0  0  0  0  0  0  0
   -4.7334   -0.3272   -0.0188 C   0  0  0  0  0  0  0  0  0  0  0  0
   -5.1151   -1.0795    0.6853 H   0  0  0  0  0  0  0  0  0  0  0  0
   -3.3250   -0.2379   -0.1833 C   0  0  0  0  0  0  0  0  0  0  0  0
   -7.0939    0.3983   -0.4988 C   0  0  0  0  0  0  0  0  0  0  0  0
   -7.9388    1.5335   -0.5765 C   0  0  0  0  0  0  0  0  0  0  0  0
   -7.4979    2.5251   -0.7590 H   0  0  0  0  0  0  0  0  0  0  0  0
   -9.3184    1.4335   -0.3953 C   0  0  0  0  0  0  0  0  0  0  0  0
   -9.9679    2.3194   -0.4474 H   0  0  0  0  0  0  0  0  0  0  0  0
   -9.9138    0.1829   -0.1245 C   0  0  0  0  0  0  0  0  0  0  0  0
   -9.0949   -0.9616   -0.0427 C   0  0  0  0  0  0  0  0  0  0  0  0
   -9.5256   -1.9529    0.1523 H   0  0  0  0  0  0  0  0  0  0  0  0
   -7.7100   -0.8428   -0.2320 C   0  0  0  0  0  0  0  0  0  0  0  0
   -7.0932   -1.7536   -0.1957 H   0  0  0  0  0  0  0  0  0  0  0  0
  -11.9068   -1.0461    0.3173 C   0  0  0  0  0  0  0  0  0  0  0  0
  -11.7659   -1.7859   -0.5033 H   0  0  0  0  0  0  0  0  0  0  0  0
  -12.9858   -0.8244    0.4171 H   0  0  0  0  0  0  0  0  0  0  0  0
  -11.5427   -1.4998    1.2672 H   0  0  0  0  0  0  0  0  0  0  0  0
   -0.7622   -2.4449    1.3112 C   0  0  0  0  0  0  0  0  0  0  0  0
    0.3567   -2.1093    2.3000 C   0  0  0  0  0  0  0  0  0  0  0  0
    1.2505   -1.7483    1.7526 H   0  0  0  0  0  0  0  0  0  0  0  0
    0.6516   -3.0046    2.8833 H   0  0  0  0  0  0  0  0  0  0  0  0
    0.0363   -1.3157    3.0044 H   0  0  0  0  0  0  0  0  0  0  0  0
   -0.3017   -3.4907    0.2818 C   0  0  0  0  0  0  0  0  0  0  0  0
   -1.1410   -3.7744   -0.3847 H   0  0  0  0  0  0  0  0  0  0  0  0
    0.0718   -4.4043    0.7877 H   0  0  0  0  0  0  0  0  0  0  0  0
    0.5067   -3.0645   -0.3457 H   0  0  0  0  0  0  0  0  0  0  0  0
   -2.0900   -2.8448    2.0047 C   0  0  0  0  0  0  0  0  0  0  0  0
   -2.3050   -3.9297    1.9656 H   0  0  0  0  0  0  0  0  0  0  0  0
   -2.1359   -2.4983    3.0604 H   0  0  0  0  0  0  0  0  0  0  0  0
   -2.4970   -1.1782    0.5410 C   0  0  1  0  0  3  0  0  0  0  0  0
  1  5  1  0  0  0  0
  2 37  1  0  0  0  0
  3 24  1  0  0  0  0
  4 28  1  0  0  0  0
  5 13  1  0  0  0  0
  6  8  1  0  0  0  0
  6  5  2  0  0  0  0
  7  6  1  0  0  0  0
  8 10  2  0  0  0  0
  9  8  1  0  0  0  0
 10 14  1  0  0  0  0
 10 11  1  0  0  0  0
 11 12  1  0  0  0  0
 13 11  2  0  0  0  0
 14 22  1  0  0  0  0
 15 14  2  0  0  0  0
 15 17  1  0  0  0  0
 16 15  1  0  0  0  0
 17 19  2  0  0  0  0
 18 17  1  0  0  0  0
 19 20  1  0  0  0  0
 19  3  1  0  0  0  0
 20 21  1  0  0  0  0
 22 23  1  0  0  0  0
 22 20  2  0  0  0  0
 24 26  1  0  0  0  0
 24 27  1  0  0  0  0
 25 24  1  0  0  0  0
 28 37  1  0  0  0  0
 28 29  1  0  0  0  0
 29 31  1  0  0  0  0
 29 32  1  0  0  0  0
 30 29  1  0  0  0  0
 33 35  1  0  0  0  0
 33 28  1  0  0  0  0
 34 33  1  0  0  0  0
 36 33  1  0  0  0  0
 37 39  1  0  0  0  0
 38 37  1  0  0  0  0
 40 13  1  6  0  0  0
 40  4  1  0  0  0  0
 40  2  1  0  0  0  0
M  CHG  1   1  -1
M  END
