3,5
 OpenBabel05122313063D

 30 31  0  0  1  0  0  0  0  0999 V2000
    2.7926   -0.2839   -0.1316 N   0  0  0  0  0  0  0  0  0  0  0  0
    4.4092    1.2201   -0.1329 N   0  0  0  0  0  0  0  0  0  0  0  0
    0.7456    1.7905   -0.3426 N   0  0  0  0  0  0  0  0  0  0  0  0
    2.4136    3.3742   -0.4322 N   0  0  0  0  0  0  0  0  0  0  0  0
    1.6001   -0.8259   -0.4210 O   0  0  0  0  0  1  0  0  0  0  0  0
    4.0405   -1.0895   -0.3025 C   0  0  0  0  0  0  0  0  0  0  0  0
    5.0853   -0.0395    0.2645 C   0  0  0  0  0  0  0  0  0  0  0  0
    3.9547   -2.3950    0.4828 C   0  0  0  0  0  0  0  0  0  0  0  0
    4.9389   -2.9026    0.4851 H   0  0  0  0  0  0  0  0  0  0  0  0
    3.6362   -2.2345    1.5288 H   0  0  0  0  0  0  0  0  0  0  0  0
    3.2294   -3.0762   -0.0016 H   0  0  0  0  0  0  0  0  0  0  0  0
    4.2196   -1.3694   -1.8029 C   0  0  0  0  0  0  0  0  0  0  0  0
    5.1107   -1.9996   -1.9839 H   0  0  0  0  0  0  0  0  0  0  0  0
    3.3327   -1.9183   -2.1744 H   0  0  0  0  0  0  0  0  0  0  0  0
    4.3249   -0.4321   -2.3829 H   0  0  0  0  0  0  0  0  0  0  0  0
    6.4740   -0.1417   -0.3630 C   0  0  0  0  0  0  0  0  0  0  0  0
    6.9202   -1.1345   -0.1571 H   0  0  0  0  0  0  0  0  0  0  0  0
    6.4515    0.0193   -1.4558 H   0  0  0  0  0  0  0  0  0  0  0  0
    7.1463    0.6188    0.0817 H   0  0  0  0  0  0  0  0  0  0  0  0
    5.1820   -0.0863    1.8005 C   0  0  0  0  0  0  0  0  0  0  0  0
    5.6889   -1.0074    2.1463 H   0  0  0  0  0  0  0  0  0  0  0  0
    5.7768    0.7764    2.1607 H   0  0  0  0  0  0  0  0  0  0  0  0
    4.1793   -0.0369    2.2696 H   0  0  0  0  0  0  0  0  0  0  0  0
    3.0709    1.0379   -0.1709 C   0  0  1  0  0  3  0  0  0  0  0  0
    2.1003    2.0651   -0.2924 C   0  0  0  0  0  3  0  0  0  0  0  0
    0.1739    3.0110   -0.5506 C   0  0  0  0  0  0  0  0  0  0  0  0
   -0.9135    3.1300   -0.6126 H   0  0  0  0  0  0  0  0  0  0  0  0
    1.2113    3.9724   -0.5966 C   0  0  0  0  0  0  0  0  0  0  0  0
    1.1170    5.0577   -0.7364 H   0  0  0  0  0  0  0  0  0  0  0  0
    4.7760    2.1514    0.0803 H   0  0  0  0  0  0  0  0  0  0  0  0
  2 30  1  0  0  0  0
  2  7  1  0  0  0  0
  3 25  1  0  0  0  0
  4 25  1  0  0  0  0
  5  1  1  0  0  0  0
  6  1  1  0  0  0  0
  6  7  1  0  0  0  0
  6  8  1  0  0  0  0
  7 20  1  0  0  0  0
  8  9  1  0  0  0  0
  8 10  1  0  0  0  0
 11  8  1  0  0  0  0
 12  6  1  0  0  0  0
 13 12  1  0  0  0  0
 14 12  1  0  0  0  0
 15 12  1  0  0  0  0
 16 17  1  0  0  0  0
 16 19  1  0  0  0  0
 16  7  1  0  0  0  0
 18 16  1  0  0  0  0
 20 21  1  0  0  0  0
 20 22  1  0  0  0  0
 20 23  1  0  0  0  0
 24 25  1  6  0  0  0
 24  2  1  0  0  0  0
 24  1  1  0  0  0  0
 26  3  2  0  0  0  0
 27 26  1  0  0  0  0
 28 26  1  0  0  0  0
 28  4  2  0  0  0  0
 29 28  1  0  0  0  0
M  END
