1,4
 OpenBabel05122313063D

 17 18  0  0  1  0  0  0  0  0999 V2000
    1.7632   -0.7659   -0.4025 N   0  0  0  0  0  2  0  0  0  0  0  0
    2.5536   -0.4814   -1.4507 N   0  0  0  0  0  0  0  0  0  0  0  0
    2.2164   -0.7030   -2.3898 H   0  0  0  0  0  0  0  0  0  0  0  0
    0.3935   -1.1495    1.5895 O   0  5  0  0  0  0  0  0  0  0  0  0
    1.8839   -0.2789    3.0800 O   0  0  0  0  0  0  0  0  0  0  0  0
    2.3845   -0.3939    0.7286 C   0  0  0  0  0  0  0  0  0  0  0  0
    3.6448    0.1920    0.4011 C   0  0  0  0  0  0  0  0  0  0  0  0
    4.6901    0.7883    1.1362 C   0  0  0  0  0  0  0  0  0  0  0  0
    4.6216    0.8453    2.2312 H   0  0  0  0  0  0  0  0  0  0  0  0
    5.7798    1.2961    0.4262 C   0  0  0  0  0  0  0  0  0  0  0  0
    6.6111    1.7685    0.9702 H   0  0  0  0  0  0  0  0  0  0  0  0
    5.8425    1.2148   -0.9895 C   0  0  0  0  0  0  0  0  0  0  0  0
    6.7208    1.6240   -1.5108 H   0  0  0  0  0  0  0  0  0  0  0  0
    4.8205    0.6268   -1.7428 C   0  0  0  0  0  0  0  0  0  0  0  0
    4.8756    0.5670   -2.8390 H   0  0  0  0  0  0  0  0  0  0  0  0
    3.7214    0.1200   -1.0274 C   0  0  2  0  0  3  0  0  0  0  0  0
    1.5707   -0.5905    1.9442 C   0  0  0  0  0  0  0  0  0  0  0  0
  1  6  1  0  0  0  0
  2 16  1  0  0  0  0
  2  1  1  0  0  0  0
  3  2  1  0  0  0  0
  4 17  1  0  0  0  0
  6 17  1  0  0  0  0
  7  6  2  0  0  0  0
  7  8  1  0  0  0  0
  8  9  1  0  0  0  0
 10 11  1  0  0  0  0
 10  8  2  0  0  0  0
 12 10  1  0  0  0  0
 13 12  1  0  0  0  0
 14 12  2  0  0  0  0
 15 14  1  0  0  0  0
 16 14  1  6  0  0  0
 16  7  1  0  0  0  0
 17  5  2  0  0  0  0
M  CHG  1   4  -1
M  END
