2,7
 OpenBabel05122313063D

 28 28  0  0  0  0  0  0  0  0999 V2000
   -4.5619    1.0837   -1.4915 S   0  0  0  0  0  0  0  0  0  0  0  0
    1.8920   -0.7777   -0.6098 O   0  5  0  0  0  0  0  0  0  0  0  0
    3.9645   -2.3678   -0.3738 O   0  0  0  0  0  0  0  0  0  0  0  0
   -4.8241    1.3368   -2.9364 O   0  0  0  0  0  1  0  0  0  0  0  0
   -5.6597    0.4349   -0.7060 O   0  0  0  0  0  1  0  0  0  0  0  0
   -3.9416    2.2752   -0.7781 O   0  0  0  0  0  1  0  0  0  0  0  0
   -0.7118   -0.3965   -1.3396 N   0  0  0  0  0  2  0  0  0  0  0  0
    1.7597   -1.9707   -1.1106 C   0  0  0  0  0  0  0  0  0  0  0  0
    2.8791   -2.8793   -1.0198 C   0  0  0  0  0  0  0  0  0  0  0  0
    2.7892   -4.1676   -1.5530 C   0  0  0  0  0  0  0  0  0  0  0  0
    3.6372   -4.8604   -1.4628 H   0  0  0  0  0  0  0  0  0  0  0  0
    1.6114   -4.6016   -2.2146 C   0  0  0  0  0  0  0  0  0  0  0  0
    1.5688   -5.6192   -2.6286 H   0  0  0  0  0  0  0  0  0  0  0  0
    0.5309   -3.7413   -2.3414 C   0  0  0  0  0  3  0  0  0  0  0  0
   -0.3847   -4.0606   -2.8625 H   0  0  0  0  0  0  0  0  0  0  0  0
    0.5825   -2.4319   -1.7842 C   0  0  0  0  0  0  0  0  0  0  0  0
   -0.5125   -1.5225   -1.9743 C   0  0  0  0  0  0  0  0  0  0  0  0
   -1.2523   -1.8023   -2.7512 H   0  0  0  0  0  0  0  0  0  0  0  0
   -1.8498    0.4346   -1.7923 C   0  0  0  0  0  0  0  0  0  0  0  0
   -1.7566    0.6278   -2.8816 H   0  0  0  0  0  0  0  0  0  0  0  0
   -1.8068    1.4167   -1.2884 H   0  0  0  0  0  0  0  0  0  0  0  0
   -3.2100   -0.1869   -1.4868 C   0  0  0  0  0  0  0  0  0  0  0  0
   -3.2237   -0.6437   -0.4828 H   0  0  0  0  0  0  0  0  0  0  0  0
   -3.5163   -0.9557   -2.2227 H   0  0  0  0  0  0  0  0  0  0  0  0
    5.1046   -3.1892   -0.2523 C   0  0  0  0  0  0  0  0  0  0  0  0
    5.5119   -3.4884   -1.2454 H   0  0  0  0  0  0  0  0  0  0  0  0
    4.8942   -4.1151    0.3319 H   0  0  0  0  0  0  0  0  0  0  0  0
    5.8674   -2.5937    0.2837 H   0  0  0  0  0  0  0  0  0  0  0  0
  1 22  1  0  0  0  0
  1  6  1  0  0  0  0
  1  5  1  0  0  0  0
  3 25  1  0  0  0  0
  4  1  1  0  0  0  0
  8  9  2  0  0  0  0
  8  2  1  0  0  0  0
  9  3  1  0  0  0  0
 10 11  1  0  0  0  0
 10  9  1  0  0  0  0
 12 10  2  0  0  0  0
 13 12  1  0  0  0  0
 14 12  1  0  0  0  0
 14 16  1  0  0  0  0
 15 14  1  0  0  0  0
 16  8  1  0  0  0  0
 17 16  2  0  0  0  0
 17  7  1  0  0  0  0
 18 17  1  0  0  0  0
 19 22  1  0  0  0  0
 19  7  1  0  0  0  0
 19 21  1  0  0  0  0
 20 19  1  0  0  0  0
 22 23  1  0  0  0  0
 24 22  1  0  0  0  0
 25 28  1  0  0  0  0
 25 27  1  0  0  0  0
 26 25  1  0  0  0  0
M  CHG  1   2  -1
M  END
