2,4
 OpenBabel05122313063D

 29 30  0  0  0  0  0  0  0  0999 V2000
   -3.4105    3.7790    0.0003 S   0  0  0  0  0  0  0  0  0  0  0  0
   -1.5878   -0.9613   -0.0006 O   0  5  0  0  0  0  0  0  0  0  0  0
   -7.7694   -2.4892    0.0001 O   0  0  0  0  0  0  0  0  0  0  0  0
   -1.1413    1.4700    0.0003 N   0  0  0  0  0  2  0  0  0  0  0  0
   -2.4690    1.1668    0.0005 N   0  0  0  0  0  0  0  0  0  0  0  0
   -2.6191   -0.1552   -0.0000 C   0  0  0  0  0  0  0  0  0  0  0  0
   -3.9727   -0.7341   -0.0000 C   0  0  0  0  0  0  0  0  0  0  0  0
   -4.1509   -2.1372    0.0005 C   0  0  0  0  0  0  0  0  0  0  0  0
   -3.2619   -2.7832    0.0009 H   0  0  0  0  0  0  0  0  0  0  0  0
   -5.4276   -2.6932    0.0006 C   0  0  0  0  0  0  0  0  0  0  0  0
   -5.5819   -3.7818    0.0010 H   0  0  0  0  0  0  0  0  0  0  0  0
   -6.5675   -1.8568    0.0001 C   0  0  0  0  0  0  0  0  0  0  0  0
   -8.9479   -1.7044   -0.0002 C   0  0  0  0  0  0  0  0  0  0  0  0
   -9.0160   -1.0595   -0.9048 H   0  0  0  0  0  0  0  0  0  0  0  0
   -9.7959   -2.4140   -0.0000 H   0  0  0  0  0  0  0  0  0  0  0  0
   -9.0161   -1.0588    0.9038 H   0  0  0  0  0  0  0  0  0  0  0  0
   -6.4023   -0.4536   -0.0005 C   0  0  0  0  0  0  0  0  0  0  0  0
   -7.2712    0.2177   -0.0009 H   0  0  0  0  0  0  0  0  0  0  0  0
   -5.1148    0.0937   -0.0005 C   0  0  0  0  0  0  0  0  0  0  0  0
   -4.9768    1.1842   -0.0010 H   0  0  0  0  0  0  0  0  0  0  0  0
   -0.7824    2.7386    0.0001 C   0  0  0  0  0  3  0  0  0  0  0  0
    0.3046    2.9115    0.0001 H   0  0  0  0  0  0  0  0  0  0  0  0
   -1.6555    3.8716    0.0001 C   0  0  0  0  0  0  0  0  0  0  0  0
   -3.5394    5.5055    0.0001 C   0  0  0  0  0  0  0  0  0  0  0  0
   -4.5307    5.9772    0.0002 H   0  0  0  0  0  0  0  0  0  0  0  0
   -2.3031    6.1358   -0.0001 C   0  0  0  0  0  0  0  0  0  0  0  0
   -2.1760    7.2270   -0.0003 H   0  0  0  0  0  0  0  0  0  0  0  0
   -1.2320    5.2088   -0.0002 C   0  0  0  0  0  0  0  0  0  0  0  0
   -0.1680    5.4839   -0.0003 H   0  0  0  0  0  0  0  0  0  0  0  0
  2  6  1  0  0  0  0
  4  5  1  0  0  0  0
  6  7  1  0  0  0  0
  6  5  2  0  0  0  0
  7  8  1  0  0  0  0
  8 10  2  0  0  0  0
  8  9  1  0  0  0  0
 10 11  1  0  0  0  0
 12  3  1  0  0  0  0
 12 10  1  0  0  0  0
 13 15  1  0  0  0  0
 13  3  1  0  0  0  0
 13 16  1  0  0  0  0
 14 13  1  0  0  0  0
 17 12  2  0  0  0  0
 18 17  1  0  0  0  0
 19 17  1  0  0  0  0
 19  7  2  0  0  0  0
 20 19  1  0  0  0  0
 21  4  1  0  0  0  0
 22 21  1  0  0  0  0
 23 21  1  0  0  0  0
 23  1  1  0  0  0  0
 24 25  1  0  0  0  0
 24  1  1  0  0  0  0
 26 24  2  0  0  0  0
 27 26  1  0  0  0  0
 28 26  1  0  0  0  0
 28 23  2  0  0  0  0
 29 28  1  0  0  0  0
M  CHG  1   2  -1
M  END
