1,3
 OpenBabel05122313063D

 39 40  0  0  1  0  0  0  0  0999 V2000
    2.0136   -0.1585   -0.1402 O   0  0  0  0  0  1  0  0  0  0  0  0
    4.4071   -2.7031    0.4499 O   0  0  0  0  0  0  0  0  0  0  0  0
   -0.2793   -2.0345   -0.1457 N   0  0  0  0  0  2  0  0  0  0  0  0
    4.1264   -1.3272    0.1562 C   0  0  0  0  0  0  0  0  0  0  0  0
    2.6050   -1.2755    0.0533 C   0  0  2  0  0  3  0  0  0  0  0  0
    2.0798   -2.5605    0.1903 C   0  0  0  0  0  0  0  0  0  0  0  0
    3.2216   -3.5412    0.4152 C   0  0  0  0  0  0  0  0  0  0  0  0
    0.7153   -2.8856    0.0765 C   0  0  0  0  0  0  0  0  0  0  0  0
    0.4328   -3.9544    0.1514 H   0  0  0  0  0  0  0  0  0  0  0  0
    4.7723   -0.9263   -1.1792 C   0  0  0  0  0  0  0  0  0  0  0  0
    4.3908   -1.5602   -2.0033 H   0  0  0  0  0  0  0  0  0  0  0  0
    5.8702   -1.0613   -1.1137 H   0  0  0  0  0  0  0  0  0  0  0  0
    4.5493    0.1338   -1.4116 H   0  0  0  0  0  0  0  0  0  0  0  0
    4.6242   -0.4375    1.3021 C   0  0  0  0  0  0  0  0  0  0  0  0
    5.7236   -0.5344    1.4015 H   0  0  0  0  0  0  0  0  0  0  0  0
    4.1580   -0.7448    2.2584 H   0  0  0  0  0  0  0  0  0  0  0  0
    4.3673    0.6223    1.1039 H   0  0  0  0  0  0  0  0  0  0  0  0
    3.3731   -4.5472   -0.7363 C   0  0  0  0  0  0  0  0  0  0  0  0
    4.2846   -5.1605   -0.5892 H   0  0  0  0  0  0  0  0  0  0  0  0
    3.4588   -4.0156   -1.7037 H   0  0  0  0  0  0  0  0  0  0  0  0
    2.4997   -5.2295   -0.7902 H   0  0  0  0  0  0  0  0  0  0  0  0
    3.1253   -4.2618    1.7667 C   0  0  0  0  0  0  0  0  0  0  0  0
    3.0320   -3.5237    2.5865 H   0  0  0  0  0  0  0  0  0  0  0  0
    4.0363   -4.8690    1.9407 H   0  0  0  0  0  0  0  0  0  0  0  0
    2.2458   -4.9374    1.7985 H   0  0  0  0  0  0  0  0  0  0  0  0
   -1.6046   -2.5492   -0.1989 C   0  0  0  0  0  0  0  0  0  0  0  0
   -2.1835   -3.1638    0.9263 C   0  0  0  0  0  0  0  0  0  0  0  0
   -1.5965   -3.2466    1.8533 H   0  0  0  0  0  0  0  0  0  0  0  0
   -3.5035   -3.6356    0.8740 C   0  0  0  0  0  0  0  0  0  0  0  0
   -3.9433   -4.1081    1.7666 H   0  0  0  0  0  0  0  0  0  0  0  0
   -4.2817   -3.5041   -0.2922 C   0  0  0  0  0  0  0  0  0  0  0  0
   -3.6829   -2.8938   -1.4169 C   0  0  0  0  0  0  0  0  0  0  0  0
   -4.2648   -2.7881   -2.3466 H   0  0  0  0  0  0  0  0  0  0  0  0
   -2.3702   -2.4161   -1.3740 C   0  0  0  0  0  0  0  0  0  0  0  0
   -1.9191   -1.9245   -2.2478 H   0  0  0  0  0  0  0  0  0  0  0  0
   -5.7153   -3.9690   -0.3398 C   0  0  0  0  0  0  0  0  0  0  0  0
   -5.9253   -4.5501   -1.2609 H   0  0  0  0  0  0  0  0  0  0  0  0
   -6.4147   -3.1054   -0.3389 H   0  0  0  0  0  0  0  0  0  0  0  0
   -5.9697   -4.6029    0.5316 H   0  0  0  0  0  0  0  0  0  0  0  0
  3  8  1  0  0  0  0
  4  2  1  0  0  0  0
  4 14  1  0  0  0  0
  5  1  1  6  0  0  0
  5  4  1  0  0  0  0
  5  6  1  0  0  0  0
  6  7  1  0  0  0  0
  7  2  1  0  0  0  0
  7 22  1  0  0  0  0
  8  9  1  0  0  0  0
  8  6  2  0  0  0  0
 10 12  1  0  0  0  0
 10  4  1  0  0  0  0
 11 10  1  0  0  0  0
 13 10  1  0  0  0  0
 14 15  1  0  0  0  0
 14 16  1  0  0  0  0
 17 14  1  0  0  0  0
 18 19  1  0  0  0  0
 18  7  1  0  0  0  0
 20 18  1  0  0  0  0
 21 18  1  0  0  0  0
 22 25  1  0  0  0  0
 22 24  1  0  0  0  0
 22 23  1  0  0  0  0
 26  3  1  0  0  0  0
 26 27  1  0  0  0  0
 27 28  1  0  0  0  0
 29 27  2  0  0  0  0
 29 30  1  0  0  0  0
 31 29  1  0  0  0  0
 32 34  1  0  0  0  0
 32 31  2  0  0  0  0
 33 32  1  0  0  0  0
 34 26  2  0  0  0  0
 35 34  1  0  0  0  0
 36 38  1  0  0  0  0
 36 31  1  0  0  0  0
 36 39  1  0  0  0  0
 37 36  1  0  0  0  0
M  END
