33,34
 OpenBabel05122313063D

 34 36  0  0  0  0  0  0  0  0999 V2000
    1.1044    1.2221   -0.0271 C   0  0  0  0  0  0  0  0  0  0  0  0
    1.2803    2.2782    0.2403 H   0  0  0  0  0  0  0  0  0  0  0  0
    4.5845   -1.2088   -0.5338 C   0  0  0  0  0  0  0  0  0  0  0  0
    5.4873   -1.8305   -0.6467 H   0  0  0  0  0  0  0  0  0  0  0  0
    2.2589    0.4124   -0.2375 C   0  0  0  0  0  0  0  0  0  0  0  0
    2.1374   -0.9880   -0.5351 C   0  0  0  0  0  0  0  0  0  0  0  0
   -1.2221    2.4523    1.4817 C   0  0  0  0  0  0  0  0  0  0  0  0
   -0.5275    2.1155    2.2665 H   0  0  0  0  0  0  0  0  0  0  0  0
   -1.1325    1.8916    0.1957 C   0  0  0  0  0  0  0  0  0  0  0  0
    3.3420   -1.7740   -0.6630 C   0  0  0  0  0  0  0  0  0  0  0  0
    3.2097   -2.8431   -0.8824 H   0  0  0  0  0  0  0  0  0  0  0  0
   -2.0279    2.3089   -0.8111 C   0  0  0  0  0  0  0  0  0  0  0  0
   -1.9334    1.8508   -1.8081 H   0  0  0  0  0  0  0  0  0  0  0  0
    4.7528    0.1890   -0.2610 C   0  0  0  0  0  0  0  0  0  0  0  0
    3.5837    1.0158   -0.1151 C   0  0  0  0  0  0  0  0  0  0  0  0
    6.0505    0.7523   -0.1408 C   0  0  0  0  0  3  0  0  0  0  0  0
    6.9208    0.0875   -0.2588 H   0  0  0  0  0  0  0  0  0  0  0  0
    3.8042    2.3995    0.1391 C   0  0  0  0  0  0  0  0  0  0  0  0
    2.9545    3.0883    0.2419 H   0  0  0  0  0  0  0  0  0  0  0  0
   -3.1148    3.8386    0.7723 C   0  0  0  0  0  0  0  0  0  0  0  0
   -2.2086    3.4128    1.7613 C   0  0  0  0  0  0  0  0  0  0  0  0
   -2.2767    3.8372    2.7756 H   0  0  0  0  0  0  0  0  0  0  0  0
   -2.9991    3.2704   -0.5181 C   0  0  0  0  0  0  0  0  0  0  0  0
   -3.6890    3.5955   -1.3136 H   0  0  0  0  0  0  0  0  0  0  0  0
   -4.1698    4.8757    1.0639 C   0  0  0  0  0  0  0  0  0  0  0  0
   -4.1898    5.1496    2.1364 H   0  0  0  0  0  0  0  0  0  0  0  0
   -5.1815    4.5158    0.7842 H   0  0  0  0  0  0  0  0  0  0  0  0
   -3.9903    5.8048    0.4826 H   0  0  0  0  0  0  0  0  0  0  0  0
    6.2271    2.1068    0.1154 C   0  0  0  0  0  0  0  0  0  0  0  0
    7.2368    2.5339    0.2053 H   0  0  0  0  0  0  0  0  0  0  0  0
    5.0868    2.9302    0.2526 C   0  0  0  0  0  0  0  0  0  0  0  0
    5.2083    4.0069    0.4471 H   0  0  0  0  0  0  0  0  0  0  0  0
    1.0265   -1.6364   -0.6831 O   0  5  0  0  0  0  0  0  0  0  0  0
   -0.1662    0.8835   -0.0980 N   0  0  0  0  0  2  0  0  0  0  0  0
  1  2  1  0  0  0  0
  3 14  2  0  0  0  0
  4  3  1  0  0  0  0
  5 15  1  0  0  0  0
  5  1  2  0  0  0  0
  6  5  1  0  0  0  0
  7 21  1  0  0  0  0
  7  8  1  0  0  0  0
  9  7  2  0  0  0  0
 10  6  2  0  0  0  0
 10  3  1  0  0  0  0
 11 10  1  0  0  0  0
 12 23  2  0  0  0  0
 12  9  1  0  0  0  0
 13 12  1  0  0  0  0
 14 16  1  0  0  0  0
 14 15  1  0  0  0  0
 15 18  2  0  0  0  0
 16 29  1  0  0  0  0
 17 16  1  0  0  0  0
 18 19  1  0  0  0  0
 18 31  1  0  0  0  0
 20 25  1  0  0  0  0
 20 21  2  0  0  0  0
 21 22  1  0  0  0  0
 23 20  1  0  0  0  0
 24 23  1  0  0  0  0
 25 26  1  0  0  0  0
 27 25  1  0  0  0  0
 28 25  1  0  0  0  0
 29 30  1  0  0  0  0
 29 31  2  0  0  0  0
 31 32  1  0  0  0  0
 33  6  1  0  0  0  0
 34  1  1  0  0  0  0
 34  9  1  0  0  0  0
M  CHG  1  33  -1
M  END
