1,13
 OpenBabel05122313063D

 50 51  0  0  0  0  0  0  0  0999 V2000
    1.1001   -1.1821   -0.2505 O   0  5  0  0  0  0  0  0  0  0  0  0
    1.9806   -0.1695   -0.2711 C   0  0  0  0  0  0  0  0  0  0  0  0
    3.3729   -0.3908   -0.0878 C   0  0  0  0  0  0  0  0  0  0  0  0
    4.1929    0.7549   -0.0518 C   0  0  0  0  0  0  0  0  0  0  0  0
    5.2679    0.6117    0.0992 H   0  0  0  0  0  0  0  0  0  0  0  0
    3.7056    2.0684   -0.1981 C   0  0  0  0  0  0  0  0  0  0  0  0
    2.3236    2.2293   -0.4230 C   0  0  0  0  0  0  0  0  0  0  0  0
    1.9002    3.2359   -0.5704 H   0  0  0  0  0  0  0  0  0  0  0  0
    1.4593    1.1300   -0.4743 C   0  0  0  0  0  0  0  0  0  0  0  0
    0.0050    1.3047   -0.8428 C   0  0  0  0  0  0  0  0  0  0  0  0
   -0.2789    2.3564   -0.6223 H   0  0  0  0  0  0  0  0  0  0  0  0
   -0.0839    1.2108   -1.9557 H   0  0  0  0  0  0  0  0  0  0  0  0
   -0.9573    0.3937   -0.1869 N   0  0  0  0  0  2  0  0  0  0  0  0
   -2.2282    0.9927   -0.0901 C   0  0  0  0  0  0  0  0  0  0  0  0
   -3.0200    1.2652   -1.2257 C   0  0  0  0  0  0  0  0  0  0  0  0
   -2.5642    0.8987   -2.4486 F   0  0  0  0  0  0  0  0  0  0  0  0
   -4.2988    1.8323   -1.1412 C   0  0  0  0  0  0  0  0  0  0  0  0
   -5.0248    2.0448   -2.2435 F   0  0  0  0  0  0  0  0  0  0  0  0
   -4.8076    2.1969    0.1167 C   0  0  0  0  0  0  0  0  0  0  0  0
   -6.0196    2.7481    0.2165 F   0  0  0  0  0  0  0  0  0  0  0  0
   -4.0467    1.9472    1.2714 C   0  0  0  0  0  0  0  0  0  0  0  0
   -4.5323    2.2808    2.4711 F   0  0  0  0  0  0  0  0  0  0  0  0
   -2.7670    1.3869    1.1536 C   0  0  0  0  0  0  0  0  0  0  0  0
   -2.0653    1.1714    2.2832 F   0  0  0  0  0  0  0  0  0  0  0  0
    3.9540   -1.8143    0.0270 C   0  0  0  0  0  0  0  0  0  0  0  0
    3.5660   -2.6310   -1.2291 C   0  0  0  0  0  0  0  0  0  0  0  0
    3.9080   -2.1231   -2.1540 H   0  0  0  0  0  0  0  0  0  0  0  0
    2.4720   -2.7813   -1.2831 H   0  0  0  0  0  0  0  0  0  0  0  0
    4.0428   -3.6321   -1.1905 H   0  0  0  0  0  0  0  0  0  0  0  0
    3.4031   -2.5317    1.2809 C   0  0  0  0  0  0  0  0  0  0  0  0
    3.6446   -1.9638    2.2029 H   0  0  0  0  0  0  0  0  0  0  0  0
    3.8652   -3.5362    1.3731 H   0  0  0  0  0  0  0  0  0  0  0  0
    2.3090   -2.6775    1.2127 H   0  0  0  0  0  0  0  0  0  0  0  0
    5.4903   -1.7910    0.1275 C   0  0  0  0  0  0  0  0  0  0  0  0
    5.8420   -1.2584    1.0343 H   0  0  0  0  0  0  0  0  0  0  0  0
    5.9582   -1.3147   -0.7577 H   0  0  0  0  0  0  0  0  0  0  0  0
    5.8696   -2.8307    0.1863 H   0  0  0  0  0  0  0  0  0  0  0  0
    4.6186    3.3054   -0.1286 C   0  0  0  0  0  0  0  0  0  0  0  0
    6.0904    2.9303    0.1165 C   0  0  0  0  0  0  0  0  0  0  0  0
    6.4962    2.2961   -0.6973 H   0  0  0  0  0  0  0  0  0  0  0  0
    6.2247    2.3897    1.0750 H   0  0  0  0  0  0  0  0  0  0  0  0
    6.7089    3.8491    0.1626 H   0  0  0  0  0  0  0  0  0  0  0  0
    4.5308    4.0819   -1.4623 C   0  0  0  0  0  0  0  0  0  0  0  0
    4.8623    3.4494   -2.3104 H   0  0  0  0  0  0  0  0  0  0  0  0
    5.1774    4.9834   -1.4305 H   0  0  0  0  0  0  0  0  0  0  0  0
    3.4969    4.4184   -1.6764 H   0  0  0  0  0  0  0  0  0  0  0  0
    4.1493    4.2155    1.0297 C   0  0  0  0  0  0  0  0  0  0  0  0
    4.2049    3.6809    1.9995 H   0  0  0  0  0  0  0  0  0  0  0  0
    3.1027    4.5521    0.8903 H   0  0  0  0  0  0  0  0  0  0  0  0
    4.7882    5.1204    1.0970 H   0  0  0  0  0  0  0  0  0  0  0  0
  2  1  1  0  0  0  0
  2  3  1  0  0  0  0
  3  4  2  0  0  0  0
  3 25  1  0  0  0  0
  4  5  1  0  0  0  0
  6 38  1  0  0  0  0
  6  4  1  0  0  0  0
  7  6  2  0  0  0  0
  8  7  1  0  0  0  0
  9  7  1  0  0  0  0
  9  2  2  0  0  0  0
 10 11  1  0  0  0  0
 10  9  1  0  0  0  0
 10 13  1  0  0  0  0
 12 10  1  0  0  0  0
 13 14  1  0  0  0  0
 14 23  1  0  0  0  0
 15 17  1  0  0  0  0
 15 14  2  0  0  0  0
 16 15  1  0  0  0  0
 17 19  2  0  0  0  0
 18 17  1  0  0  0  0
 19 20  1  0  0  0  0
 19 21  1  0  0  0  0
 21 22  1  0  0  0  0
 23 21  2  0  0  0  0
 23 24  1  0  0  0  0
 25 34  1  0  0  0  0
 25 30  1  0  0  0  0
 26 29  1  0  0  0  0
 26 25  1  0  0  0  0
 27 26  1  0  0  0  0
 28 26  1  0  0  0  0
 30 32  1  0  0  0  0
 30 31  1  0  0  0  0
 33 30  1  0  0  0  0
 34 37  1  0  0  0  0
 34 35  1  0  0  0  0
 36 34  1  0  0  0  0
 38 39  1  0  0  0  0
 38 47  1  0  0  0  0
 39 42  1  0  0  0  0
 39 41  1  0  0  0  0
 40 39  1  0  0  0  0
 43 45  1  0  0  0  0
 43 38  1  0  0  0  0
 44 43  1  0  0  0  0
 46 43  1  0  0  0  0
 47 50  1  0  0  0  0
 47 48  1  0  0  0  0
 49 47  1  0  0  0  0
M  CHG  1   1  -1
M  END
