1,4
 OpenBabel05122313063D

 22 23  0  0  0  0  0  0  0  0999 V2000
   -1.3330   -1.2868    0.0025 N   0  0  0  0  0  2  0  0  0  0  0  0
   -1.0255   -2.5978    0.0020 N   0  0  0  0  0  0  0  0  0  0  0  0
   -0.0058   -2.7836    0.0014 H   0  0  0  0  0  0  0  0  0  0  0  0
   -1.2516    1.3939    0.0005 O   0  5  0  0  0  0  0  0  0  0  0  0
   -2.5755    1.3360    0.0003 C   0  0  0  0  0  0  0  0  0  0  0  0
   -3.2870    2.5693    0.0002 C   0  0  0  0  0  0  0  0  0  0  0  0
   -2.6953    3.4974    0.0003 H   0  0  0  0  0  0  0  0  0  0  0  0
   -4.6806    2.6125   -0.0000 C   0  0  0  0  0  0  0  0  0  0  0  0
   -5.1913    3.5881   -0.0002 H   0  0  0  0  0  0  0  0  0  0  0  0
   -5.4311    1.4202   -0.0001 C   0  0  0  0  0  0  0  0  0  0  0  0
   -6.5302    1.4482   -0.0003 H   0  0  0  0  0  0  0  0  0  0  0  0
   -4.7561    0.1991    0.0001 C   0  0  0  0  0  3  0  0  0  0  0  0
   -5.3344   -0.7371    0.0002 H   0  0  0  0  0  0  0  0  0  0  0  0
   -3.3432    0.1217    0.0003 C   0  0  0  0  0  0  0  0  0  0  0  0
   -2.6840   -1.1765    0.0004 C   0  0  0  0  0  0  0  0  0  0  0  0
   -3.2279   -2.4948   -0.0014 C   0  0  0  0  0  0  0  0  0  0  0  0
   -4.2845   -2.7773   -0.0034 H   0  0  0  0  0  0  0  0  0  0  0  0
   -2.1414   -3.3740   -0.0005 C   0  0  0  0  0  0  0  0  0  0  0  0
   -2.0802   -4.8657   -0.0003 C   0  0  0  0  0  0  0  0  0  0  0  0
   -1.5424   -5.2535   -0.8903 H   0  0  0  0  0  0  0  0  0  0  0  0
   -1.5582   -5.2535    0.8991 H   0  0  0  0  0  0  0  0  0  0  0  0
   -3.1014   -5.2880   -0.0092 H   0  0  0  0  0  0  0  0  0  0  0  0
  2  1  1  0  0  0  0
  3  2  1  0  0  0  0
  5  4  1  0  0  0  0
  6  5  2  0  0  0  0
  6  7  1  0  0  0  0
  8  6  1  0  0  0  0
  9  8  1  0  0  0  0
 10  8  2  0  0  0  0
 10 12  1  0  0  0  0
 11 10  1  0  0  0  0
 12 13  1  0  0  0  0
 12 14  1  0  0  0  0
 14  5  1  0  0  0  0
 14 15  2  0  0  0  0
 15  1  1  0  0  0  0
 16 18  2  0  0  0  0
 16 15  1  0  0  0  0
 17 16  1  0  0  0  0
 18 19  1  0  0  0  0
 18  2  1  0  0  0  0
 19 21  1  0  0  0  0
 20 19  1  0  0  0  0
 22 19  1  0  0  0  0
M  CHG  1   4  -1
M  END
