1,18
 OpenBabel05122313063D

 19 20  0  0  1  0  0  0  0  0999 V2000
   -1.1190    2.0040    0.0783 O   0  5  0  0  0  0  0  0  0  0  0  0
   -2.4244    1.8003    0.0077 C   0  0  0  0  0  0  0  0  0  0  0  0
   -3.4066    2.7998    0.1341 C   0  0  0  0  0  0  0  0  0  0  0  0
   -3.0880    3.8397    0.2973 H   0  0  0  0  0  0  0  0  0  0  0  0
   -4.7795    2.4613    0.0611 C   0  0  0  0  0  0  0  0  0  0  0  0
   -5.5265    3.2648    0.1551 H   0  0  0  0  0  0  0  0  0  0  0  0
   -5.2075    1.1458   -0.1149 C   0  0  0  0  0  0  0  0  0  0  0  0
   -6.2776    0.8951   -0.1575 H   0  0  0  0  0  0  0  0  0  0  0  0
   -4.2399    0.1073   -0.2232 C   0  0  0  0  0  0  0  0  0  0  0  0
   -4.5247   -1.2874   -0.3436 C   0  0  0  0  0  0  0  0  0  0  0  0
   -5.5710   -1.6260   -0.4035 H   0  0  0  0  0  0  0  0  0  0  0  0
   -3.4977   -2.2059   -0.3388 C   0  0  0  0  0  0  0  0  0  0  0  0
   -3.7056   -3.2859   -0.3745 H   0  0  0  0  0  0  0  0  0  0  0  0
   -2.1215   -1.7870   -0.2473 C   0  0  0  0  0  0  0  0  0  0  0  0
   -1.1290   -2.7084   -0.1463 N   0  0  0  0  0  0  0  0  0  0  0  0
   -0.2642   -2.4294    0.3907 H   0  0  0  0  0  0  0  0  0  0  0  0
   -1.4347   -3.6710   -0.0101 H   0  0  0  0  0  0  0  0  0  0  0  0
   -1.8280   -0.4652   -0.2725 N   0  0  0  0  0  2  0  0  0  0  0  0
   -2.8614    0.4540   -0.1838 C   0  0  2  0  0  3  0  0  0  0  0  0
  2  1  1  0  0  0  0
  2  3  2  0  0  0  0
  3  4  1  0  0  0  0
  5  3  1  0  0  0  0
  5  6  1  0  0  0  0
  7  5  2  0  0  0  0
  8  7  1  0  0  0  0
  9 19  1  0  0  0  0
  9  7  1  0  0  0  0
 10 12  1  0  0  0  0
 10  9  2  0  0  0  0
 11 10  1  0  0  0  0
 12 14  2  0  0  0  0
 13 12  1  0  0  0  0
 14 15  1  0  0  0  0
 15 17  1  0  0  0  0
 15 16  1  0  0  0  0
 18 14  1  0  0  0  0
 19 18  1  1  0  0  0
 19  2  1  0  0  0  0
M  CHG  1   1  -1
M  END
