1,11
 OpenBabel05122313063D

 25 25  0  0  0  0  0  0  0  0999 V2000
    0.8147   -1.6705   -0.6488 O   0  0  0  0  0  1  0  0  0  0  0  0
   -0.0654   -2.6587   -0.6660 N   0  0  0  0  0  0  0  0  0  0  0  0
   -1.3389   -2.4443   -0.5106 N   0  0  0  0  0  2  0  0  0  0  0  0
    0.4555   -4.0087   -0.8607 C   0  0  0  0  0  0  0  0  0  0  0  0
    1.4293   -4.3861    0.2519 C   0  0  0  0  0  0  0  0  0  0  0  0
   -0.4336   -4.6650   -0.8893 H   0  0  0  0  0  0  0  0  0  0  0  0
    0.9459   -4.0344   -1.8564 H   0  0  0  0  0  0  0  0  0  0  0  0
    0.9478   -4.2782    1.2432 H   0  0  0  0  0  0  0  0  0  0  0  0
    1.7619   -5.4340    0.1200 H   0  0  0  0  0  0  0  0  0  0  0  0
    2.3182   -3.7272    0.2277 H   0  0  0  0  0  0  0  0  0  0  0  0
   -1.5880   -1.1699   -0.3008 N   0  0  0  0  0  2  0  0  0  0  0  0
   -2.9509   -0.8270   -0.1895 C   0  0  0  0  0  0  0  0  0  0  0  0
   -3.9031   -1.7266    0.3375 C   0  0  0  0  0  0  0  0  0  0  0  0
   -3.3536    0.4574   -0.6106 C   0  0  0  0  0  0  0  0  0  0  0  0
   -5.2362   -1.3284    0.4552 C   0  0  0  0  0  0  0  0  0  0  0  0
   -3.5757   -2.7216    0.6678 H   0  0  0  0  0  0  0  0  0  0  0  0
   -4.6957    0.8320   -0.4898 C   0  0  0  0  0  0  0  0  0  0  0  0
   -2.6042    1.1169   -1.0712 H   0  0  0  0  0  0  0  0  0  0  0  0
   -5.6614   -0.0427    0.0499 C   0  0  0  0  0  0  0  0  0  0  0  0
   -5.9709   -2.0296    0.8822 H   0  0  0  0  0  0  0  0  0  0  0  0
   -5.0071    1.8301   -0.8369 H   0  0  0  0  0  0  0  0  0  0  0  0
   -7.0989    0.3785    0.2112 C   0  0  0  0  0  0  0  0  0  0  0  0
   -7.3291    1.2843   -0.3825 H   0  0  0  0  0  0  0  0  0  0  0  0
   -7.7969   -0.4254   -0.0992 H   0  0  0  0  0  0  0  0  0  0  0  0
   -7.3293    0.6102    1.2736 H   0  0  0  0  0  0  0  0  0  0  0  0
  2  1  1  0  0  0  0
  2  3  1  0  0  0  0
  3 11  1  0  0  0  0
  4  2  1  0  0  0  0
  4  5  1  0  0  0  0
  5  8  1  0  0  0  0
  6  4  1  0  0  0  0
  7  4  1  0  0  0  0
  9  5  1  0  0  0  0
 10  5  1  0  0  0  0
 11 12  1  0  0  0  0
 12 13  1  0  0  0  0
 13 15  2  0  0  0  0
 13 16  1  0  0  0  0
 14 17  1  0  0  0  0
 14 12  2  0  0  0  0
 15 20  1  0  0  0  0
 17 19  2  0  0  0  0
 18 14  1  0  0  0  0
 19 22  1  0  0  0  0
 19 15  1  0  0  0  0
 21 17  1  0  0  0  0
 22 25  1  0  0  0  0
 23 22  1  0  0  0  0
 24 22  1  0  0  0  0
M  END
