1,2
 OpenBabel05122313063D

 19 20  0  0  1  0  0  0  0  0999 V2000
    1.8624    0.3405   -0.4130 N   0  0  0  0  0  2  0  0  0  0  0  0
    1.6511   -2.3049   -0.4255 O   0  5  0  0  0  0  0  0  0  0  0  0
    3.8831   -2.5604   -0.1588 O   0  0  0  0  0  0  0  0  0  0  0  0
    2.9998   -0.3412   -0.2129 C   0  0  0  0  0  0  0  0  0  0  0  0
    4.2529    0.2883   -0.0430 C   0  0  0  0  0  0  0  0  0  0  0  0
    5.1275   -0.3566    0.1191 H   0  0  0  0  0  0  0  0  0  0  0  0
    4.3124    1.6696   -0.0805 C   0  0  0  0  0  0  0  0  0  0  0  0
    5.2635    2.2012    0.0775 H   0  0  0  0  0  0  0  0  0  0  0  0
    3.1321    2.4223   -0.3413 C   0  0  0  0  0  0  0  0  0  0  0  0
    3.1356    3.8432   -0.4324 C   0  0  0  0  0  0  0  0  0  0  0  0
    4.0862    4.3772   -0.2824 H   0  0  0  0  0  0  0  0  0  0  0  0
    1.9682    4.5366   -0.7130 C   0  0  0  0  0  0  0  0  0  0  0  0
    1.9808    5.6343   -0.7814 H   0  0  0  0  0  0  0  0  0  0  0  0
    0.7553    3.8301   -0.9249 C   0  0  0  0  0  0  0  0  0  0  0  0
   -0.1639    4.3840   -1.1670 H   0  0  0  0  0  0  0  0  0  0  0  0
    0.7105    2.4461   -0.8357 C   0  0  0  0  0  0  0  0  0  0  0  0
   -0.2206    1.9008   -1.0254 H   0  0  0  0  0  0  0  0  0  0  0  0
    1.8889    1.7137   -0.5284 C   0  0  1  0  0  3  0  0  0  0  0  0
    2.8989   -1.8528   -0.2445 C   0  0  0  0  0  0  0  0  0  0  0  0
  1  4  1  0  0  0  0
  2 19  1  0  0  0  0
  4  5  2  0  0  0  0
  5  6  1  0  0  0  0
  7  5  1  0  0  0  0
  7  8  1  0  0  0  0
  9  7  2  0  0  0  0
 10  9  1  0  0  0  0
 10 11  1  0  0  0  0
 12 10  2  0  0  0  0
 13 12  1  0  0  0  0
 14 16  2  0  0  0  0
 14 12  1  0  0  0  0
 15 14  1  0  0  0  0
 17 16  1  0  0  0  0
 18 16  1  6  0  0  0
 18  1  1  0  0  0  0
 18  9  1  0  0  0  0
 19  4  1  0  0  0  0
 19  3  2  0  0  0  0
M  CHG  1   2  -1
M  END
