1,3
 OpenBabel05122313063D

 21 21  0  0  0  0  0  0  0  0999 V2000
   -0.2028   -0.6243   -2.2093 O   0  5  0  0  0  0  0  0  0  0  0  0
   -2.1249   -1.0825   -3.3221 O   0  0  0  0  0  0  0  0  0  0  0  0
   -1.5247   -0.1102    0.0697 N   0  0  0  0  0  2  0  0  0  0  0  0
   -5.7107   -0.5046    0.3112 N   0  0  0  0  0  0  0  0  0  0  0  0
   -2.1805    0.1578    1.2237 C   0  0  0  0  0  3  0  0  0  0  0  0
   -1.5526    0.4669    2.0721 H   0  0  0  0  0  0  0  0  0  0  0  0
   -3.5609    0.0424    1.3486 C   0  0  0  0  0  0  0  0  0  0  0  0
   -4.0129    0.2750    2.3201 H   0  0  0  0  0  0  0  0  0  0  0  0
   -4.3489   -0.3707    0.2331 C   0  0  0  0  0  0  0  0  0  0  0  0
   -3.6364   -0.6368   -0.9676 C   0  0  0  0  0  0  0  0  0  0  0  0
   -4.1051   -0.9560   -1.9078 H   0  0  0  0  0  0  0  0  0  0  0  0
   -2.2551   -0.5013   -1.0126 C   0  0  0  0  0  0  0  0  0  0  0  0
   -1.4923   -0.7766   -2.3103 C   0  0  0  0  0  0  0  0  0  0  0  0
   -6.3979   -0.2309    1.5590 C   0  0  0  0  0  0  0  0  0  0  0  0
   -6.0519   -0.8976    2.3804 H   0  0  0  0  0  0  0  0  0  0  0  0
   -7.4817   -0.3949    1.4236 H   0  0  0  0  0  0  0  0  0  0  0  0
   -6.2514    0.8205    1.8931 H   0  0  0  0  0  0  0  0  0  0  0  0
   -6.4588   -0.9351   -0.8582 C   0  0  0  0  0  0  0  0  0  0  0  0
   -6.3371   -0.2300   -1.7092 H   0  0  0  0  0  0  0  0  0  0  0  0
   -7.5328   -0.9859   -0.6057 H   0  0  0  0  0  0  0  0  0  0  0  0
   -6.1377   -1.9406   -1.2077 H   0  0  0  0  0  0  0  0  0  0  0  0
  2 13  2  0  0  0  0
  3  5  1  0  0  0  0
  4 14  1  0  0  0  0
  5  7  1  0  0  0  0
  5  6  1  0  0  0  0
  7  8  1  0  0  0  0
  9  4  1  0  0  0  0
  9  7  2  0  0  0  0
 10  9  1  0  0  0  0
 11 10  1  0  0  0  0
 12 10  2  0  0  0  0
 12  3  1  0  0  0  0
 13  1  1  0  0  0  0
 13 12  1  0  0  0  0
 14 17  1  0  0  0  0
 14 15  1  0  0  0  0
 16 14  1  0  0  0  0
 18 20  1  0  0  0  0
 18  4  1  0  0  0  0
 19 18  1  0  0  0  0
 21 18  1  0  0  0  0
M  CHG  1   1  -1
M  END
