1,5
 OpenBabel05122313063D

 17 17  0  0  0  0  0  0  0  0999 V2000
   -0.2430   -0.7984   -2.1570 O   0  5  0  0  0  0  0  0  0  0  0  0
   -2.0551   -1.4989   -3.3272 O   0  0  0  0  0  0  0  0  0  0  0  0
   -6.6645   -0.7197    1.2241 O   0  0  0  0  0  0  0  0  0  0  0  0
   -6.3561   -1.5224    1.6846 H   0  0  0  0  0  0  0  0  0  0  0  0
   -1.7702   -0.2226   -0.0017 N   0  0  0  0  0  2  0  0  0  0  0  0
   -2.5116    0.1107    1.0774 C   0  0  0  0  0  3  0  0  0  0  0  0
   -1.9546    0.5113    1.9394 H   0  0  0  0  0  0  0  0  0  0  0  0
   -3.9006   -0.0443    1.0965 C   0  0  0  0  0  0  0  0  0  0  0  0
   -4.4840    0.2342    1.9857 H   0  0  0  0  0  0  0  0  0  0  0  0
   -4.5583   -0.5612   -0.0369 C   0  0  0  0  0  0  0  0  0  0  0  0
   -3.7716   -0.8982   -1.1507 C   0  0  0  0  0  0  0  0  0  0  0  0
   -4.1852   -1.3112   -2.0841 H   0  0  0  0  0  0  0  0  0  0  0  0
   -2.3858   -0.7146   -1.1058 C   0  0  0  0  0  0  0  0  0  0  0  0
   -1.5092   -1.0509   -2.3177 C   0  0  0  0  0  0  0  0  0  0  0  0
   -6.0666   -0.7145   -0.0540 C   0  0  0  0  0  0  0  0  0  0  0  0
   -6.4999    0.1564   -0.5943 H   0  0  0  0  0  0  0  0  0  0  0  0
   -6.3344   -1.6125   -0.6623 H   0  0  0  0  0  0  0  0  0  0  0  0
  2 14  2  0  0  0  0
  3  4  1  0  0  0  0
  5  6  1  0  0  0  0
  6  8  1  0  0  0  0
  6  7  1  0  0  0  0
  8  9  1  0  0  0  0
 10  8  2  0  0  0  0
 11 13  2  0  0  0  0
 11 10  1  0  0  0  0
 12 11  1  0  0  0  0
 13  5  1  0  0  0  0
 14  1  1  0  0  0  0
 14 13  1  0  0  0  0
 15 10  1  0  0  0  0
 15  3  1  0  0  0  0
 16 15  1  0  0  0  0
 17 15  1  0  0  0  0
M  CHG  1   1  -1
M  END
