1,2
 OpenBabel05122313063D

 13 13  0  0  1  0  0  0  0  0999 V2000
   -2.3288    0.5010    0.3387 N   0  0  0  0  0  2  0  0  0  0  0  0
   -1.2284   -0.4061   -1.7031 O   0  0  0  0  0  1  0  0  0  0  0  0
   -3.6222    2.0617   -0.6339 O   0  0  0  0  0  0  0  0  0  0  0  0
   -2.0329    0.6833   -2.0221 C   0  0  0  0  0  0  0  0  0  0  0  0
   -2.8246    0.4063   -2.7610 H   0  0  0  0  0  0  0  0  0  0  0  0
   -1.4583    1.5342   -2.4654 H   0  0  0  0  0  0  0  0  0  0  0  0
   -2.6806    1.1189   -0.7431 C   0  0  2  0  0  3  0  0  0  0  0  0
   -3.9057    2.1693    0.7995 C   0  0  0  0  0  0  0  0  0  0  0  0
   -5.0042    2.1704    0.9272 H   0  0  0  0  0  0  0  0  0  0  0  0
   -3.4900    3.1380    1.1439 H   0  0  0  0  0  0  0  0  0  0  0  0
   -3.1895    0.9501    1.4314 C   0  0  0  0  0  0  0  0  0  0  0  0
   -2.5899    1.2066    2.3265 H   0  0  0  0  0  0  0  0  0  0  0  0
   -3.8746    0.1186    1.7008 H   0  0  0  0  0  0  0  0  0  0  0  0
  1 11  1  0  0  0  0
  3  8  1  0  0  0  0
  4  2  1  0  0  0  0
  5  4  1  0  0  0  0
  6  4  1  0  0  0  0
  7  4  1  6  0  0  0
  7  3  1  0  0  0  0
  7  1  1  0  0  0  0
  8  9  1  0  0  0  0
  8 10  1  0  0  0  0
  8 11  1  0  0  0  0
 11 13  1  0  0  0  0
 11 12  1  0  0  0  0
M  END
