1,7
 OpenBabel05122313063D

 25 25  0  0  1  0  0  0  0  0999 V2000
   -1.6616    1.1583    0.9944 O   0  5  0  0  0  0  0  0  0  0  0  0
   -2.0968    2.1658    0.2938 C   0  0  0  0  0  0  0  0  0  0  0  0
   -1.2989    2.8050   -0.6476 C   0  0  0  0  0  0  0  0  0  0  0  0
    0.0349    2.4227   -0.9967 C   0  0  2  0  0  3  0  0  0  0  0  0
    0.7258    3.2545   -2.0554 C   0  0  0  0  0  0  0  0  0  0  0  0
   -3.5172    2.5710    0.5596 C   0  0  0  0  0  0  0  0  0  0  0  0
    0.6701    1.3884   -0.4480 N   0  0  0  0  0  2  0  0  0  0  0  0
    1.9831    1.0757   -0.9208 C   0  0  0  0  0  0  0  0  0  0  0  0
    3.1179    1.5181   -0.2102 C   0  0  0  0  0  0  0  0  0  0  0  0
    4.4021    1.1698   -0.6532 C   0  0  0  0  0  0  0  0  0  0  0  0
    4.5699    0.3727   -1.7978 C   0  0  0  0  0  0  0  0  0  0  0  0
    3.4401   -0.0794   -2.4985 C   0  0  0  0  0  0  0  0  0  0  0  0
    2.1530    0.2681   -2.0639 C   0  0  0  0  0  0  0  0  0  0  0  0
   -1.7290    3.6601   -1.1842 H   0  0  0  0  0  0  0  0  0  0  0  0
    0.1084    4.1199   -2.3542 H   0  0  0  0  0  0  0  0  0  0  0  0
    0.9476    2.6458   -2.9550 H   0  0  0  0  0  0  0  0  0  0  0  0
    1.7053    3.6172   -1.6845 H   0  0  0  0  0  0  0  0  0  0  0  0
   -4.1820    1.7217    0.2970 H   0  0  0  0  0  0  0  0  0  0  0  0
   -3.8182    3.4632   -0.0185 H   0  0  0  0  0  0  0  0  0  0  0  0
   -3.6520    2.7636    1.6434 H   0  0  0  0  0  0  0  0  0  0  0  0
    2.9720    2.1135    0.7025 H   0  0  0  0  0  0  0  0  0  0  0  0
    5.2810    1.5207   -0.0911 H   0  0  0  0  0  0  0  0  0  0  0  0
    5.5793    0.0988   -2.1397 H   0  0  0  0  0  0  0  0  0  0  0  0
    3.5592   -0.7143   -3.3897 H   0  0  0  0  0  0  0  0  0  0  0  0
    1.2634   -0.0962   -2.5981 H   0  0  0  0  0  0  0  0  0  0  0  0
  2  6  1  0  0  0  0
  2  1  1  0  0  0  0
  3  2  2  0  0  0  0
  4  3  1  6  0  0  0
  4  7  1  0  0  0  0
  5 17  1  0  0  0  0
  5  4  1  0  0  0  0
  6 20  1  0  0  0  0
  8  7  1  0  0  0  0
  8  9  1  0  0  0  0
  9 21  1  0  0  0  0
 10  9  2  0  0  0  0
 10 22  1  0  0  0  0
 11 10  1  0  0  0  0
 12 13  1  0  0  0  0
 12 11  2  0  0  0  0
 13  8  2  0  0  0  0
 14  3  1  0  0  0  0
 15  5  1  0  0  0  0
 16  5  1  0  0  0  0
 18  6  1  0  0  0  0
 19  6  1  0  0  0  0
 23 11  1  0  0  0  0
 24 12  1  0  0  0  0
 25 13  1  0  0  0  0
M  CHG  1   1  -1
M  END
