8,22
 OpenBabel05122313063D

 23 24  0  0  1  0  0  0  0  0999 V2000
   -1.0853    2.4894   -0.4701 C   0  0  0  0  0  0  0  0  0  0  0  0
    1.0257    2.7140   -0.1164 N   0  0  0  0  0  0  0  0  0  0  0  0
   -4.2378    0.4579   -0.0719 C   0  0  0  0  0  0  0  0  0  0  0  0
   -5.2675    1.3320   -0.4746 C   0  0  0  0  0  0  0  0  0  0  0  0
   -5.0831    2.4143   -0.5699 H   0  0  0  0  0  0  0  0  0  0  0  0
   -6.8460   -0.5357   -0.5615 C   0  0  0  0  0  0  0  0  0  0  0  0
   -2.3775    1.9658   -0.5204 N   0  0  0  0  0  0  0  0  0  0  0  0
   -0.0224    1.8702    0.0880 N   0  0  0  0  0  2  0  0  0  0  0  0
   -0.7412    3.6584   -1.0121 N   0  0  0  0  0  0  0  0  0  0  0  0
   -4.5164   -0.9177    0.0932 C   0  0  0  0  0  0  0  0  0  0  0  0
   -3.6946   -1.5922    0.3841 H   0  0  0  0  0  0  0  0  0  0  0  0
   -6.5557    0.8364   -0.7100 C   0  0  0  0  0  0  0  0  0  0  0  0
   -7.3578    1.5293   -1.0079 H   0  0  0  0  0  0  0  0  0  0  0  0
   -2.8463    0.8980    0.1942 C   0  0  2  0  0  3  0  0  0  0  0  0
    0.5869    3.7623   -0.7668 N   0  0  0  0  0  0  0  0  0  0  0  0
   -5.8026   -1.3996   -0.1592 C   0  0  0  0  0  0  0  0  0  0  0  0
   -6.0058   -2.4761   -0.0461 H   0  0  0  0  0  0  0  0  0  0  0  0
   -8.2267   -1.0761   -0.8261 C   0  0  0  0  0  0  0  0  0  0  0  0
   -8.9416   -0.2727   -1.0873 H   0  0  0  0  0  0  0  0  0  0  0  0
   -8.6220   -1.6147    0.0599 H   0  0  0  0  0  0  0  0  0  0  0  0
   -8.2133   -1.8065   -1.6621 H   0  0  0  0  0  0  0  0  0  0  0  0
   -2.1362    0.2717    1.0156 O   0  0  0  0  0  1  0  0  0  0  0  0
   -3.0023    2.4265   -1.1863 H   0  0  0  0  0  0  0  0  0  0  0  0
  1  8  1  0  0  0  0
  2  8  1  0  0  0  0
  3 10  1  0  0  0  0
  3 14  1  0  0  0  0
  4  3  2  0  0  0  0
  5  4  1  0  0  0  0
  6 16  1  0  0  0  0
  7  1  1  0  0  0  0
  7 14  1  0  0  0  0
  9 15  1  0  0  0  0
  9  1  2  0  0  0  0
 10 11  1  0  0  0  0
 12  6  2  0  0  0  0
 12  4  1  0  0  0  0
 13 12  1  0  0  0  0
 14 22  1  6  0  0  0
 15  2  2  0  0  0  0
 16 17  1  0  0  0  0
 16 10  2  0  0  0  0
 18  6  1  0  0  0  0
 18 20  1  0  0  0  0
 19 18  1  0  0  0  0
 21 18  1  0  0  0  0
 23  7  1  0  0  0  0
M  END
