2,3
 OpenBabel05122313063D

 29 30  0  0  1  0  0  0  0  0999 V2000
   -7.5448   -0.5945   -0.3600 Cl  0  0  0  0  0  0  0  0  0  0  0  0
   -0.9324    0.5531   -0.8681 O   0  5  0  0  0  0  0  0  0  0  0  0
    0.4949   -1.1900    0.3591 N   0  0  0  0  0  2  0  0  0  0  0  0
   -0.8602   -1.3513    0.4455 N   0  0  0  0  0  0  0  0  0  0  0  0
    3.2497   -1.9398   -0.4844 N   0  0  0  0  0  0  0  0  0  0  0  0
    2.7141   -1.6215   -1.3213 H   0  0  0  0  0  0  0  0  0  0  0  0
    4.9079   -2.5465    0.8987 C   0  0  0  0  0  0  0  0  0  0  0  0
    5.9083   -2.7838    1.2773 H   0  0  0  0  0  0  0  0  0  0  0  0
    3.6850   -2.6191    1.6121 C   0  0  0  0  0  0  0  0  0  0  0  0
    3.5507   -2.9009    2.6625 H   0  0  0  0  0  0  0  0  0  0  0  0
    2.6574   -2.2156    0.7335 C   0  0  0  0  0  0  0  0  0  0  0  0
    4.5975   -2.1329   -0.4040 C   0  0  0  0  0  0  0  0  0  0  0  0
    5.2393   -2.0014   -1.2823 H   0  0  0  0  0  0  0  0  0  0  0  0
    1.2271   -2.1220    0.9566 C   0  0  2  0  0  3  0  0  0  0  0  0
    0.5564   -3.1489    1.8252 C   0  0  0  0  0  0  0  0  0  0  0  0
   -0.1615   -2.6733    2.5216 H   0  0  0  0  0  0  0  0  0  0  0  0
    1.3052   -3.7430    2.3790 H   0  0  0  0  0  0  0  0  0  0  0  0
   -0.0412   -3.8414    1.1959 H   0  0  0  0  0  0  0  0  0  0  0  0
   -1.5155   -0.4255   -0.2383 C   0  0  0  0  0  0  0  0  0  0  0  0
   -2.9958   -0.4818   -0.2700 C   0  0  0  0  0  0  0  0  0  0  0  0
   -3.7209    0.5040   -0.9713 C   0  0  0  0  0  0  0  0  0  0  0  0
   -3.1658    1.2940   -1.4963 H   0  0  0  0  0  0  0  0  0  0  0  0
   -5.1197    0.4746   -1.0037 C   0  0  0  0  0  0  0  0  0  0  0  0
   -5.6904    1.2385   -1.5500 H   0  0  0  0  0  0  0  0  0  0  0  0
   -5.8007   -0.5514   -0.3274 C   0  0  0  0  0  0  0  0  0  0  0  0
   -5.0960   -1.5461    0.3744 C   0  0  0  0  0  0  0  0  0  0  0  0
   -5.6498   -2.3414    0.8926 H   0  0  0  0  0  0  0  0  0  0  0  0
   -3.6989   -1.5077    0.3979 C   0  0  0  0  0  0  0  0  0  0  0  0
   -3.1244   -2.2752    0.9349 H   0  0  0  0  0  0  0  0  0  0  0  0
  1 25  1  0  0  0  0
  2 19  1  0  0  0  0
  3  4  1  0  0  0  0
  5 12  1  0  0  0  0
  5 11  1  0  0  0  0
  6  5  1  0  0  0  0
  7  8  1  0  0  0  0
  7  9  1  0  0  0  0
  9 10  1  0  0  0  0
 11 14  1  0  0  0  0
 11  9  2  0  0  0  0
 12  7  2  0  0  0  0
 13 12  1  0  0  0  0
 14  3  1  6  0  0  0
 14 15  1  0  0  0  0
 15 17  1  0  0  0  0
 15 16  1  0  0  0  0
 18 15  1  0  0  0  0
 19  4  2  0  0  0  0
 20 19  1  0  0  0  0
 20 28  1  0  0  0  0
 21 20  2  0  0  0  0
 22 21  1  0  0  0  0
 23 21  1  0  0  0  0
 23 25  2  0  0  0  0
 24 23  1  0  0  0  0
 25 26  1  0  0  0  0
 26 28  2  0  0  0  0
 26 27  1  0  0  0  0
 28 29  1  0  0  0  0
M  CHG  1   2  -1
M  END
