2,3
 OpenBabel05122313063D

 29 30  0  0  1  0  0  0  0  0999 V2000
    1.2589   -4.0065   -0.0750 S   0  0  0  0  0  0  0  0  0  0  0  0
    0.0874   -1.6731    0.1804 N   0  0  0  0  0  2  0  0  0  0  0  0
    0.4821    0.2655   -1.9256 O   0  5  0  0  0  0  0  0  0  0  0  0
    1.4731   -0.5082   -2.2615 C   0  0  0  0  0  0  0  0  0  0  0  0
    2.2637   -0.1410   -3.3988 C   0  0  0  0  0  0  0  0  0  0  0  0
    1.9627    0.7760   -3.9264 H   0  0  0  0  0  0  0  0  0  0  0  0
    3.3767   -0.8731   -3.7902 C   0  0  0  0  0  0  0  0  0  0  0  0
    3.9723   -0.5347   -4.6532 H   0  0  0  0  0  0  0  0  0  0  0  0
    3.7640   -2.0348   -3.0801 C   0  0  0  0  0  0  0  0  0  0  0  0
    4.6581   -2.6022   -3.3751 H   0  0  0  0  0  0  0  0  0  0  0  0
    2.9936   -2.4470   -2.0000 C   0  0  0  0  0  0  0  0  0  0  0  0
    3.2872   -3.3461   -1.4353 H   0  0  0  0  0  0  0  0  0  0  0  0
    1.8397   -1.7311   -1.5725 C   0  0  0  0  0  0  0  0  0  0  0  0
    1.0160   -2.2889   -0.5168 C   0  0  1  0  0  3  0  0  0  0  0  0
    0.1698   -3.7896    1.3777 C   0  0  0  0  0  0  0  0  0  0  0  0
   -0.4347   -4.7059    1.5178 H   0  0  0  0  0  0  0  0  0  0  0  0
    0.7948   -3.6443    2.2822 H   0  0  0  0  0  0  0  0  0  0  0  0
   -0.6977   -2.5518    1.0643 C   0  0  2  0  0  0  0  0  0  0  0  0
   -0.8797   -1.9914    2.0052 H   0  0  0  0  0  0  0  0  0  0  0  0
   -2.0914   -2.8829    0.4633 C   0  0  0  0  0  0  0  0  0  0  0  0
   -2.5395   -1.9013    0.2272 H   0  0  0  0  0  0  0  0  0  0  0  0
   -2.9896   -3.5425    1.5157 C   0  0  0  0  0  0  0  0  0  0  0  0
   -4.0192   -3.6651    1.1240 H   0  0  0  0  0  0  0  0  0  0  0  0
   -3.0504   -2.9289    2.4384 H   0  0  0  0  0  0  0  0  0  0  0  0
   -2.6273   -4.5530    1.8014 H   0  0  0  0  0  0  0  0  0  0  0  0
   -2.0454   -3.6784   -0.8445 C   0  0  0  0  0  0  0  0  0  0  0  0
   -3.0685   -3.7783   -1.2611 H   0  0  0  0  0  0  0  0  0  0  0  0
   -1.6380   -4.7004   -0.7027 H   0  0  0  0  0  0  0  0  0  0  0  0
   -1.4253   -3.1691   -1.6082 H   0  0  0  0  0  0  0  0  0  0  0  0
  1 15  1  0  0  0  0
  2 18  1  0  0  0  0
  4  3  1  0  0  0  0
  4 13  1  0  0  0  0
  5  4  2  0  0  0  0
  6  5  1  0  0  0  0
  7  5  1  0  0  0  0
  7  9  2  0  0  0  0
  8  7  1  0  0  0  0
  9 11  1  0  0  0  0
 10  9  1  0  0  0  0
 11 13  2  0  0  0  0
 11 12  1  0  0  0  0
 14 13  1  1  0  0  0
 14  1  1  0  0  0  0
 14  2  1  0  0  0  0
 15 16  1  0  0  0  0
 15 17  1  0  0  0  0
 18 15  1  0  0  0  0
 18 19  1  1  0  0  0
 20 18  1  0  0  0  0
 20 22  1  0  0  0  0
 21 20  1  0  0  0  0
 22 25  1  0  0  0  0
 22 24  1  0  0  0  0
 23 22  1  0  0  0  0
 26 28  1  0  0  0  0
 26 20  1  0  0  0  0
 27 26  1  0  0  0  0
 29 26  1  0  0  0  0
M  CHG  1   3  -1
M  END
