1,4
 OpenBabel05122313063D

 39 41  0  0  1  0  0  0  0  0999 V2000
    0.7767   -1.9511    0.9072 N   0  0  0  0  0  2  0  0  0  0  0  0
   -0.4717   -1.9152    1.4419 C   0  0  1  0  0  3  0  0  0  0  0  0
   -0.9665   -0.5995    1.7862 C   0  0  0  0  0  0  0  0  0  0  0  0
   -0.1819    0.4299    1.5469 O   0  5  0  0  0  0  0  0  0  0  0  0
   -2.2652   -0.5134    2.3219 C   0  0  0  0  0  0  0  0  0  0  0  0
   -2.6590    0.4789    2.5851 H   0  0  0  0  0  0  0  0  0  0  0  0
   -3.0496   -1.6773    2.5142 C   0  0  0  0  0  0  0  0  0  0  0  0
   -4.0589   -1.5686    2.9422 H   0  0  0  0  0  0  0  0  0  0  0  0
   -2.5831   -2.9488    2.1784 C   0  0  0  0  0  0  0  0  0  0  0  0
   -3.2048   -3.8428    2.3359 H   0  0  0  0  0  0  0  0  0  0  0  0
   -1.2779   -3.0889    1.6288 C   0  0  0  0  0  0  0  0  0  0  0  0
   -0.6882   -4.3238    1.2240 C   0  0  0  0  0  0  0  0  0  0  0  0
   -1.2557   -5.2591    1.3524 H   0  0  0  0  0  0  0  0  0  0  0  0
    0.5784   -4.3420    0.6686 C   0  0  0  0  0  0  0  0  0  0  0  0
    1.0388   -5.2860    0.3417 H   0  0  0  0  0  0  0  0  0  0  0  0
    1.3019   -3.1175    0.5050 C   0  0  0  0  0  0  0  0  0  0  0  0
    2.6127   -3.1071   -0.1138 C   0  0  0  0  0  0  0  0  0  0  0  0
    3.0549   -4.0823   -0.3796 H   0  0  0  0  0  0  0  0  0  0  0  0
    3.2327   -1.9718   -0.3559 N   0  0  0  0  0  0  0  0  0  0  0  0
    4.4269   -1.9857   -0.9135 N   0  0  0  0  0  0  0  0  0  0  0  0
    5.1851   -3.1999   -1.2088 C   0  0  0  0  0  0  0  0  0  0  0  0
    4.6888   -3.7726   -2.0277 H   0  0  0  0  0  0  0  0  0  0  0  0
    5.2149   -3.8654   -0.3169 H   0  0  0  0  0  0  0  0  0  0  0  0
    6.5699   -2.6743   -1.6088 C   0  0  0  0  0  0  0  0  0  0  0  0
    7.2259   -2.6294   -0.7157 H   0  0  0  0  0  0  0  0  0  0  0  0
    7.0665   -3.3194   -2.3583 H   0  0  0  0  0  0  0  0  0  0  0  0
    6.2838   -1.2557   -2.1170 C   0  0  0  0  0  0  0  0  0  0  0  0
    7.1727   -0.5964   -2.1087 H   0  0  0  0  0  0  0  0  0  0  0  0
    5.8903   -1.2850   -3.1565 H   0  0  0  0  0  0  0  0  0  0  0  0
    5.1869   -0.7527   -1.1711 C   0  0  1  0  0  0  0  0  0  0  0  0
    5.6333   -0.4000   -0.2111 H   0  0  0  0  0  0  0  0  0  0  0  0
    4.3407    0.3796   -1.7589 C   0  0  0  0  0  0  0  0  0  0  0  0
    4.9855    1.0281   -2.3938 H   0  0  0  0  0  0  0  0  0  0  0  0
    3.5170   -0.0279   -2.3816 H   0  0  0  0  0  0  0  0  0  0  0  0
    3.7190    1.1861   -0.7646 O   0  0  0  0  0  0  0  0  0  0  0  0
    4.5750    2.1618   -0.1671 C   0  0  0  0  0  0  0  0  0  0  0  0
    5.3936    1.6850    0.4135 H   0  0  0  0  0  0  0  0  0  0  0  0
    3.9386    2.7450    0.5213 H   0  0  0  0  0  0  0  0  0  0  0  0
    4.9949    2.8243   -0.9558 H   0  0  0  0  0  0  0  0  0  0  0  0
  2  1  1  6  0  0  0
  2 11  1  0  0  0  0
  2  3  1  0  0  0  0
  3  5  2  0  0  0  0
  4  3  1  0  0  0  0
  5  7  1  0  0  0  0
  5  6  1  0  0  0  0
  7  8  1  0  0  0  0
  9 10  1  0  0  0  0
  9  7  2  0  0  0  0
 11  9  1  0  0  0  0
 12 13  1  0  0  0  0
 12 11  2  0  0  0  0
 14 12  1  0  0  0  0
 15 14  1  0  0  0  0
 16 14  2  0  0  0  0
 16  1  1  0  0  0  0
 17 16  1  0  0  0  0
 18 17  1  0  0  0  0
 19 17  2  0  0  0  0
 20 19  1  0  0  0  0
 21 20  1  0  0  0  0
 21 23  1  0  0  0  0
 22 21  1  0  0  0  0
 24 21  1  0  0  0  0
 24 25  1  0  0  0  0
 26 24  1  0  0  0  0
 27 28  1  0  0  0  0
 27 24  1  0  0  0  0
 27 30  1  0  0  0  0
 29 27  1  0  0  0  0
 30 20  1  0  0  0  0
 30 31  1  1  0  0  0
 32 30  1  0  0  0  0
 32 35  1  0  0  0  0
 33 32  1  0  0  0  0
 34 32  1  0  0  0  0
 35 36  1  0  0  0  0
 36 37  1  0  0  0  0
 36 38  1  0  0  0  0
 39 36  1  0  0  0  0
M  CHG  1   4  -1
M  END
