2,3
 OpenBabel05122313063D

 32 33  0  0  1  0  0  0  0  0999 V2000
    5.4980    4.6781   -0.3159 Br  0  0  0  0  0  0  0  0  0  0  0  0
    1.5656   -0.3970    0.0238 O   0  5  0  0  0  0  0  0  0  0  0  0
   -0.5439   -0.2445   -2.0656 N   0  0  0  0  0  2  0  0  0  0  0  0
   -1.8579   -0.3418   -2.6122 C   0  0  0  0  0  0  0  0  0  0  0  0
   -2.8430    0.5944   -2.2385 C   0  0  0  0  0  0  0  0  0  0  0  0
   -2.5662    1.4064   -1.5517 H   0  0  0  0  0  0  0  0  0  0  0  0
   -4.1527    0.4732   -2.7242 C   0  0  0  0  0  0  0  0  0  0  0  0
   -4.9150    1.2005   -2.4050 H   0  0  0  0  0  0  0  0  0  0  0  0
   -4.4887   -0.5766   -3.5940 C   0  0  0  0  0  0  0  0  0  0  0  0
   -5.5177   -0.6756   -3.9706 H   0  0  0  0  0  0  0  0  0  0  0  0
   -3.5050   -1.5031   -3.9778 C   0  0  0  0  0  0  0  0  0  0  0  0
   -3.7601   -2.3270   -4.6616 H   0  0  0  0  0  0  0  0  0  0  0  0
   -2.1949   -1.3903   -3.4912 C   0  0  0  0  0  0  0  0  0  0  0  0
   -1.4205   -2.1172   -3.7786 H   0  0  0  0  0  0  0  0  0  0  0  0
   -0.1261    1.5259   -3.7137 C   0  0  0  0  0  0  0  0  0  0  0  0
   -0.5954    0.8972   -4.4951 H   0  0  0  0  0  0  0  0  0  0  0  0
    0.7481    2.0490   -4.1413 H   0  0  0  0  0  0  0  0  0  0  0  0
   -0.8774    2.2901   -3.4288 H   0  0  0  0  0  0  0  0  0  0  0  0
    0.2835    0.6997   -2.5108 C   0  0  1  0  0  3  0  0  0  0  0  0
    1.5460    1.0038   -1.9303 C   0  0  0  0  0  0  0  0  0  0  0  0
    2.1502    1.7407   -2.4730 H   0  0  0  0  0  0  0  0  0  0  0  0
    2.0820    0.5162   -0.7284 C   0  0  0  0  0  0  0  0  0  0  0  0
    3.3875    1.0631   -0.2366 C   0  0  0  0  0  0  0  0  0  0  0  0
    3.7714    2.3984   -0.4803 C   0  0  0  0  0  0  0  0  0  0  0  0
    3.1015    3.0802   -1.0216 H   0  0  0  0  0  0  0  0  0  0  0  0
    4.9998    2.8665    0.0051 C   0  0  0  0  0  0  0  0  0  0  0  0
    5.8658    2.0322    0.7300 C   0  0  0  0  0  0  0  0  0  0  0  0
    6.8254    2.4191    1.1002 H   0  0  0  0  0  0  0  0  0  0  0  0
    5.4766    0.7051    0.9715 C   0  0  0  0  0  0  0  0  0  0  0  0
    6.1495    0.0405    1.5346 H   0  0  0  0  0  0  0  0  0  0  0  0
    4.2486    0.2241    0.5017 C   0  0  0  0  0  0  0  0  0  0  0  0
    3.9402   -0.8144    0.6813 H   0  0  0  0  0  0  0  0  0  0  0  0
  1 26  1  0  0  0  0
  4  5  1  0  0  0  0
  4  3  1  0  0  0  0
  5  6  1  0  0  0  0
  7  8  1  0  0  0  0
  7  5  2  0  0  0  0
  9  7  1  0  0  0  0
 10  9  1  0  0  0  0
 11  9  2  0  0  0  0
 11 13  1  0  0  0  0
 12 11  1  0  0  0  0
 13  4  2  0  0  0  0
 14 13  1  0  0  0  0
 15 18  1  0  0  0  0
 15 19  1  0  0  0  0
 16 15  1  0  0  0  0
 17 15  1  0  0  0  0
 19  3  1  1  0  0  0
 19 20  1  0  0  0  0
 20 22  2  0  0  0  0
 21 20  1  0  0  0  0
 22 23  1  0  0  0  0
 22  2  1  0  0  0  0
 23 31  1  0  0  0  0
 24 23  2  0  0  0  0
 24 26  1  0  0  0  0
 25 24  1  0  0  0  0
 26 27  2  0  0  0  0
 27 29  1  0  0  0  0
 27 28  1  0  0  0  0
 29 30  1  0  0  0  0
 31 32  1  0  0  0  0
 31 29  2  0  0  0  0
M  CHG  1   2  -1
M  END
