1,2
 OpenBabel05122313063D

 35 37  0  0  1  0  0  0  0  0999 V2000
    0.7149   -1.9329    0.2796 O   0  5  0  0  0  0  0  0  0  0  0  0
    0.3978    1.0215    0.2445 N   0  0  0  0  0  2  0  0  0  0  0  0
    1.9795   -1.6224    0.3157 C   0  0  0  0  0  0  0  0  0  0  0  0
    2.9742   -2.6388    0.4483 C   0  0  0  0  0  0  0  0  0  0  0  0
    2.6364   -3.6818    0.5343 H   0  0  0  0  0  0  0  0  0  0  0  0
    4.3314   -2.3218    0.4414 C   0  0  0  0  0  0  0  0  0  0  0  0
    5.0620   -3.1434    0.5307 H   0  0  0  0  0  0  0  0  0  0  0  0
    4.8275   -0.9933    0.3107 C   0  0  0  0  0  0  0  0  0  0  0  0
    3.8638    0.0142    0.2224 C   0  0  0  0  0  0  0  0  0  0  0  0
    2.4732   -0.2838    0.2510 C   0  0  0  0  0  0  0  0  0  0  0  0
    1.7103    0.9289    0.2760 C   0  0  1  0  0  3  0  0  0  0  0  0
    2.6699    2.1042    0.3438 C   0  0  0  0  0  0  0  0  0  0  0  0
    2.6520    2.5383    1.3656 H   0  0  0  0  0  0  0  0  0  0  0  0
    2.3617    2.9174   -0.3440 H   0  0  0  0  0  0  0  0  0  0  0  0
    4.0628    1.5054    0.0124 C   0  0  2  0  0  0  0  0  0  0  0  0
    4.8390    1.9057    0.6993 H   0  0  0  0  0  0  0  0  0  0  0  0
    6.3089   -0.7163    0.2555 C   0  0  0  0  0  0  0  0  0  0  0  0
    6.6862   -0.6723   -0.7900 H   0  0  0  0  0  0  0  0  0  0  0  0
    6.8857   -1.5092    0.7720 H   0  0  0  0  0  0  0  0  0  0  0  0
    6.5687    0.2520    0.7297 H   0  0  0  0  0  0  0  0  0  0  0  0
    4.4767    1.8098   -1.4387 C   0  0  0  0  0  0  0  0  0  0  0  0
    5.4359    1.3194   -1.6961 H   0  0  0  0  0  0  0  0  0  0  0  0
    4.5948    2.9010   -1.5995 H   0  0  0  0  0  0  0  0  0  0  0  0
    3.7042    1.4338   -2.1408 H   0  0  0  0  0  0  0  0  0  0  0  0
   -0.1956    2.3185    0.2438 C   0  0  0  0  0  0  0  0  0  0  0  0
   -0.7655    2.8069   -0.9492 C   0  0  0  0  0  0  0  0  0  0  0  0
   -0.7139    2.1653   -1.8430 H   0  0  0  0  0  0  0  0  0  0  0  0
   -1.3659    4.0733   -0.9612 C   0  0  0  0  0  0  0  0  0  0  0  0
   -1.8069    4.4551   -1.8950 H   0  0  0  0  0  0  0  0  0  0  0  0
   -1.4037    4.8568    0.2064 C   0  0  0  0  0  0  0  0  0  0  0  0
   -1.8787    5.8493    0.1915 H   0  0  0  0  0  0  0  0  0  0  0  0
   -0.8278    4.3695    1.3901 C   0  0  0  0  0  0  0  0  0  0  0  0
   -0.8538    4.9769    2.3077 H   0  0  0  0  0  0  0  0  0  0  0  0
   -0.2244    3.1023    1.4124 C   0  0  0  0  0  0  0  0  0  0  0  0
    0.2165    2.7033    2.3383 H   0  0  0  0  0  0  0  0  0  0  0  0
  1  3  1  0  0  0  0
  3  4  1  0  0  0  0
  4  5  1  0  0  0  0
  6  4  2  0  0  0  0
  6  7  1  0  0  0  0
  8  6  1  0  0  0  0
  9 10  1  0  0  0  0
  9  8  2  0  0  0  0
 10 11  1  0  0  0  0
 10  3  2  0  0  0  0
 11  2  1  6  0  0  0
 11 12  1  0  0  0  0
 12 13  1  0  0  0  0
 14 12  1  0  0  0  0
 15  9  1  0  0  0  0
 15 12  1  0  0  0  0
 15 16  1  1  0  0  0
 17  8  1  0  0  0  0
 17 20  1  0  0  0  0
 17 19  1  0  0  0  0
 18 17  1  0  0  0  0
 21 15  1  0  0  0  0
 22 21  1  0  0  0  0
 23 21  1  0  0  0  0
 24 21  1  0  0  0  0
 25  2  1  0  0  0  0
 25 34  1  0  0  0  0
 26 25  2  0  0  0  0
 27 26  1  0  0  0  0
 28 26  1  0  0  0  0
 28 30  2  0  0  0  0
 29 28  1  0  0  0  0
 30 32  1  0  0  0  0
 31 30  1  0  0  0  0
 32 34  2  0  0  0  0
 32 33  1  0  0  0  0
 34 35  1  0  0  0  0
M  CHG  1   1  -1
M  END
