1,3
 OpenBabel05122313063D

 33 35  0  0  0  0  0  0  0  0999 V2000
   -1.3918   -1.3637   -0.4962 O   0  5  0  0  0  0  0  0  0  0  0  0
   -2.6682    1.3010   -0.1058 N   0  0  0  0  0  0  0  0  0  0  0  0
   -1.4013    1.4601   -0.1304 N   0  0  0  0  0  2  0  0  0  0  0  0
   -2.6655   -1.1724   -0.3996 C   0  0  0  0  0  0  0  0  0  0  0  0
   -3.3067    0.1052   -0.1658 C   0  0  0  0  0  0  0  0  0  0  0  0
   -4.7627    0.1755   -0.0545 C   0  0  0  0  0  0  0  0  0  0  0  0
   -5.4378    1.4003    0.1815 C   0  0  0  0  0  0  0  0  0  0  0  0
   -4.8372    2.3156    0.2740 H   0  0  0  0  0  0  0  0  0  0  0  0
   -6.8262    1.4404    0.2907 C   0  0  0  0  0  0  0  0  0  0  0  0
   -7.3278    2.4032    0.4732 H   0  0  0  0  0  0  0  0  0  0  0  0
   -7.5964    0.2602    0.1694 C   0  0  0  0  0  0  0  0  0  0  0  0
   -8.6921    0.3027    0.2593 H   0  0  0  0  0  0  0  0  0  0  0  0
   -6.9571   -0.9523   -0.0672 C   0  0  0  0  0  3  0  0  0  0  0  0
   -7.5390   -1.8819   -0.1686 H   0  0  0  0  0  0  0  0  0  0  0  0
   -5.5435   -1.0192   -0.1855 C   0  0  0  0  0  0  0  0  0  0  0  0
   -4.8695   -2.2605   -0.4421 C   0  0  0  0  0  0  0  0  0  0  0  0
   -5.4780   -3.1731   -0.5470 H   0  0  0  0  0  0  0  0  0  0  0  0
   -3.5028   -2.3368   -0.5549 C   0  0  0  0  0  0  0  0  0  0  0  0
   -2.9833   -3.2874   -0.7445 H   0  0  0  0  0  0  0  0  0  0  0  0
   -0.9684    2.8281   -0.0617 C   0  0  0  0  0  0  0  0  0  0  0  0
   -1.3413    3.6002    1.0512 C   0  0  0  0  0  0  0  0  0  0  0  0
   -1.9743    3.1391    1.8230 H   0  0  0  0  0  0  0  0  0  0  0  0
   -0.8932    4.9214    1.1715 C   0  0  0  0  0  0  0  0  0  0  0  0
   -1.1798    5.5210    2.0484 H   0  0  0  0  0  0  0  0  0  0  0  0
   -0.0754    5.4676    0.1707 C   0  0  0  0  0  0  0  0  0  0  0  0
    0.2846    6.5043    0.2535 H   0  0  0  0  0  0  0  0  0  0  0  0
    0.2757    4.6934   -0.9458 C   0  0  0  0  0  0  0  0  0  0  0  0
    0.8982    5.1331   -1.7411 H   0  0  0  0  0  0  0  0  0  0  0  0
   -0.1563    3.3615   -1.0918 C   0  0  0  0  0  0  0  0  0  0  0  0
    0.2054    2.5570   -2.3117 C   0  0  0  0  0  0  0  0  0  0  0  0
    0.9008    1.7297   -2.0562 H   0  0  0  0  0  0  0  0  0  0  0  0
   -0.6883    2.0869   -2.7696 H   0  0  0  0  0  0  0  0  0  0  0  0
    0.6942    3.1928   -3.0740 H   0  0  0  0  0  0  0  0  0  0  0  0
  1  4  1  0  0  0  0
  3  2  1  0  0  0  0
  3 20  1  0  0  0  0
  4  5  1  0  0  0  0
  5  2  2  0  0  0  0
  5  6  1  0  0  0  0
  6  7  2  0  0  0  0
  7  8  1  0  0  0  0
  7  9  1  0  0  0  0
  9 10  1  0  0  0  0
 11 12  1  0  0  0  0
 11  9  2  0  0  0  0
 13 11  1  0  0  0  0
 14 13  1  0  0  0  0
 15 13  1  0  0  0  0
 15  6  1  0  0  0  0
 16 15  2  0  0  0  0
 17 16  1  0  0  0  0
 18 16  1  0  0  0  0
 18  4  2  0  0  0  0
 19 18  1  0  0  0  0
 20 21  1  0  0  0  0
 21 23  2  0  0  0  0
 21 22  1  0  0  0  0
 23 24  1  0  0  0  0
 25 26  1  0  0  0  0
 25 23  1  0  0  0  0
 27 25  2  0  0  0  0
 28 27  1  0  0  0  0
 29 27  1  0  0  0  0
 29 20  2  0  0  0  0
 30 31  1  0  0  0  0
 30 29  1  0  0  0  0
 32 30  1  0  0  0  0
 33 30  1  0  0  0  0
M  CHG  1   1  -1
M  END
