1,14
 OpenBabel05122313063D

 18 18  0  0  0  0  0  0  0  0999 V2000
   -0.8717    0.7557   -1.2031 O   0  5  0  0  0  0  0  0  0  0  0  0
   -1.8765    1.5453   -0.8873 C   0  0  0  0  0  0  0  0  0  0  0  0
   -1.8447    2.4136    0.2624 C   0  0  0  0  0  0  0  0  0  0  0  0
   -2.9621    3.2473    0.5279 C   0  0  0  0  0  0  0  0  0  0  0  0
   -2.9165    3.9237    1.3971 H   0  0  0  0  0  0  0  0  0  0  0  0
   -4.0986    3.2225   -0.2795 C   0  0  0  0  0  0  0  0  0  0  0  0
   -4.9586    3.8677   -0.0480 H   0  0  0  0  0  0  0  0  0  0  0  0
   -4.1305    2.3642   -1.4004 C   0  0  0  0  0  0  0  0  0  0  0  0
   -5.0248    2.3342   -2.0421 H   0  0  0  0  0  0  0  0  0  0  0  0
   -3.0390    1.5496   -1.7029 C   0  0  0  0  0  0  0  0  0  0  0  0
   -3.0464    0.8717   -2.5686 H   0  0  0  0  0  0  0  0  0  0  0  0
   -0.6804    2.5209    1.1098 C   0  0  0  0  0  3  0  0  0  0  0  0
   -0.6849    3.3664    1.8319 H   0  0  0  0  0  0  0  0  0  0  0  0
    0.3733    1.7466    1.0802 N   0  0  0  0  0  2  0  0  0  0  0  0
    1.5241    2.1034    1.8893 C   0  0  0  0  0  0  0  0  0  0  0  0
    1.7734    1.2794    2.5887 H   0  0  0  0  0  0  0  0  0  0  0  0
    1.3524    3.0376    2.4668 H   0  0  0  0  0  0  0  0  0  0  0  0
    2.4113    2.2498    1.2379 H   0  0  0  0  0  0  0  0  0  0  0  0
  1  2  1  0  0  0  0
  2  3  1  0  0  0  0
  3  4  2  0  0  0  0
  3 12  1  0  0  0  0
  4  5  1  0  0  0  0
  6  7  1  0  0  0  0
  6  4  1  0  0  0  0
  8  6  2  0  0  0  0
  9  8  1  0  0  0  0
 10  8  1  0  0  0  0
 10  2  2  0  0  0  0
 11 10  1  0  0  0  0
 12 13  1  0  0  0  0
 14 12  1  0  0  0  0
 14 15  1  0  0  0  0
 15 17  1  0  0  0  0
 15 16  1  0  0  0  0
 18 15  1  0  0  0  0
M  CHG  1   1  -1
M  END
