3,22
 OpenBabel05122313063D

 32 33  0  0  1  0  0  0  0  0999 V2000
    7.2050   -0.4309   -1.3024 O   0  0  0  0  0  0  0  0  0  0  0  0
    7.9567   -0.8740   -0.8673 H   0  0  0  0  0  0  0  0  0  0  0  0
    1.4377   -0.2488    1.2640 N   0  0  0  0  0  2  0  0  0  0  0  0
    2.3285    0.6650    1.5683 C   0  0  0  0  0  0  0  0  0  0  0  0
    3.1009    0.3865    2.3126 H   0  0  0  0  0  0  0  0  0  0  0  0
    1.6874   -1.5894    1.7957 C   0  0  0  0  0  0  0  0  0  0  0  0
    0.7343   -2.0147    2.1554 H   0  0  0  0  0  0  0  0  0  0  0  0
    2.4025   -1.5176    2.6433 H   0  0  0  0  0  0  0  0  0  0  0  0
    2.2732   -2.5085    0.6993 C   0  0  0  0  0  0  0  0  0  0  0  0
    1.5146   -2.5992   -0.1043 H   0  0  0  0  0  0  0  0  0  0  0  0
    2.4006   -3.5197    1.1388 H   0  0  0  0  0  0  0  0  0  0  0  0
    3.5849   -2.0094    0.1437 C   0  0  0  0  0  0  0  0  0  0  0  0
    3.6213   -0.9893   -0.8344 C   0  0  0  0  0  0  0  0  0  0  0  0
    2.6744   -0.5775   -1.2174 H   0  0  0  0  0  0  0  0  0  0  0  0
    4.8296   -0.4694   -1.3077 C   0  0  0  0  0  0  0  0  0  0  0  0
    4.8485    0.3293   -2.0630 H   0  0  0  0  0  0  0  0  0  0  0  0
    6.0515   -0.9647   -0.8106 C   0  0  0  0  0  0  0  0  0  0  0  0
    6.0363   -1.9821    0.1635 C   0  0  0  0  0  0  0  0  0  0  0  0
    6.9879   -2.3799    0.5547 H   0  0  0  0  0  0  0  0  0  0  0  0
    4.8155   -2.4893    0.6314 C   0  0  0  0  0  0  0  0  0  0  0  0
    4.8231   -3.2845    1.3945 H   0  0  0  0  0  0  0  0  0  0  0  0
    0.7545    1.5736   -0.6636 O   0  0  0  0  0  1  0  0  0  0  0  0
    1.6514    2.3550   -0.1235 C   0  0  2  0  0  3  0  0  0  0  0  0
    1.8848    3.6407   -0.6994 C   0  0  0  0  0  0  0  0  0  0  0  0
    1.2851    3.9250   -1.5763 H   0  0  0  0  0  0  0  0  0  0  0  0
    2.8371    4.5028   -0.1642 C   0  0  0  0  0  0  0  0  0  0  0  0
    2.9874    5.4909   -0.6271 H   0  0  0  0  0  0  0  0  0  0  0  0
    3.6156    4.1306    0.9586 C   0  0  0  0  0  0  0  0  0  0  0  0
    4.3680    4.8197    1.3679 H   0  0  0  0  0  0  0  0  0  0  0  0
    3.4197    2.8767    1.5258 C   0  0  0  0  0  0  0  0  0  0  0  0
    4.0253    2.5541    2.3879 H   0  0  0  0  0  0  0  0  0  0  0  0
    2.4464    1.9780    1.0116 C   0  0  0  0  0  0  0  0  0  0  0  0
  1  2  1  0  0  0  0
  1 17  1  0  0  0  0
  3  4  1  0  0  0  0
  3  6  1  0  0  0  0
  4  5  1  0  0  0  0
  6  7  1  0  0  0  0
  6  8  1  0  0  0  0
  9 11  1  0  0  0  0
  9  6  1  0  0  0  0
 10  9  1  0  0  0  0
 12 20  1  0  0  0  0
 12  9  1  0  0  0  0
 13 12  2  0  0  0  0
 14 13  1  0  0  0  0
 15 13  1  0  0  0  0
 15 17  2  0  0  0  0
 16 15  1  0  0  0  0
 17 18  1  0  0  0  0
 18 19  1  0  0  0  0
 18 20  2  0  0  0  0
 20 21  1  0  0  0  0
 23 22  1  6  0  0  0
 23 32  1  0  0  0  0
 24 26  2  0  0  0  0
 24 23  1  0  0  0  0
 25 24  1  0  0  0  0
 26 28  1  0  0  0  0
 27 26  1  0  0  0  0
 28 29  1  0  0  0  0
 28 30  2  0  0  0  0
 30 31  1  0  0  0  0
 32 30  1  0  0  0  0
 32  4  2  0  0  0  0
M  END
