3,4
 OpenBabel05122313063D

 22 22  0  0  0  0  0  0  0  0999 V2000
   -5.0379    0.7278   -0.1121 O   0  0  0  0  0  0  0  0  0  0  0  0
   -4.5726   -0.0377   -0.5817 H   0  0  0  0  0  0  0  0  0  0  0  0
   -1.0005   -0.3588    0.9295 N   0  0  0  0  0  0  0  0  0  0  0  0
   -1.5156   -1.9138   -1.1040 O   0  5  0  0  0  0  0  0  0  0  0  0
   -3.6409   -1.2125   -1.3434 O   0  0  0  0  0  0  0  0  0  0  0  0
   -2.0511    1.2820    1.9555 N   0  0  0  0  0  0  0  0  0  0  0  0
   -4.6799    2.2438    1.4972 O   0  0  0  0  0  0  0  0  0  0  0  0
   -2.9217    0.7383    1.0407 C   0  0  0  0  0  0  0  0  0  0  0  0
   -2.5570   -1.1760   -0.7435 C   0  0  0  0  0  0  0  0  0  0  0  0
   -0.8834    0.6283    1.8740 C   0  0  0  0  0  3  0  0  0  0  0  0
    0.3717    0.9926    2.5886 C   0  0  0  0  0  0  0  0  0  0  0  0
    1.0233    0.1001    2.6568 H   0  0  0  0  0  0  0  0  0  0  0  0
    0.1129    1.2913    3.6244 H   0  0  0  0  0  0  0  0  0  0  0  0
   -4.2854    1.2960    0.8350 C   0  0  0  0  0  0  0  0  0  0  0  0
   -2.2633   -0.2960    0.3802 C   0  0  0  0  0  0  0  0  0  0  0  0
    1.1140    2.1531    1.8859 C   0  0  0  0  0  0  0  0  0  0  0  0
    0.4920    3.0682    1.9763 H   0  0  0  0  0  0  0  0  0  0  0  0
    1.1762    1.9395    0.7978 H   0  0  0  0  0  0  0  0  0  0  0  0
    2.5158    2.3889    2.4441 C   0  0  0  0  0  0  0  0  0  0  0  0
    2.4916    2.5886    3.5353 H   0  0  0  0  0  0  0  0  0  0  0  0
    3.0000    3.2561    1.9532 H   0  0  0  0  0  0  0  0  0  0  0  0
    3.1688    1.5079    2.2788 H   0  0  0  0  0  0  0  0  0  0  0  0
  1 14  1  0  0  0  0
  2  1  1  0  0  0  0
  3 10  1  0  0  0  0
  4  9  1  0  0  0  0
  5  9  2  0  0  0  0
  8  6  2  0  0  0  0
  9 15  1  0  0  0  0
 10  6  1  0  0  0  0
 10 11  1  0  0  0  0
 11 12  1  0  0  0  0
 11 13  1  0  0  0  0
 14  8  1  0  0  0  0
 14  7  2  0  0  0  0
 15  3  2  0  0  0  0
 15  8  1  0  0  0  0
 16 17  1  0  0  0  0
 16 19  1  0  0  0  0
 16 11  1  0  0  0  0
 18 16  1  0  0  0  0
 19 20  1  0  0  0  0
 21 19  1  0  0  0  0
 22 19  1  0  0  0  0
M  CHG  1   4  -1
M  END
