3,4
 OpenBabel05122313063D

 24 24  0  0  0  0  0  0  0  0999 V2000
    3.6788    2.7876    1.0563 Cl  0  0  0  0  0  0  0  0  0  0  0  0
    7.1814   -1.0501   -0.5235 Cl  0  0  0  0  0  0  0  0  0  0  0  0
    1.6431    0.7490    0.4612 O   0  5  0  0  0  0  0  0  0  0  0  0
    0.7896   -1.7328   -0.3015 N   0  0  0  0  0  2  0  0  0  0  0  0
    3.1418   -1.0084   -0.2341 C   0  0  0  0  0  0  0  0  0  0  0  0
    2.8449    0.3155    0.2315 C   0  0  0  0  0  0  0  0  0  0  0  0
    3.9729    1.1736    0.4668 C   0  0  0  0  0  0  0  0  0  0  0  0
    5.2817    0.7593    0.2350 C   0  0  0  0  0  0  0  0  0  0  0  0
    6.1138    1.4516    0.4195 H   0  0  0  0  0  0  0  0  0  0  0  0
    5.5333   -0.5494   -0.2365 C   0  0  0  0  0  0  0  0  0  0  0  0
    4.4790   -1.4264   -0.4626 C   0  0  0  0  0  3  0  0  0  0  0  0
    4.6782   -2.4487   -0.8150 H   0  0  0  0  0  0  0  0  0  0  0  0
    2.0764   -1.9539   -0.4055 C   0  0  0  0  0  0  0  0  0  0  0  0
    2.3918   -2.9933   -0.6252 H   0  0  0  0  0  0  0  0  0  0  0  0
   -0.0771   -2.9195   -0.3593 C   0  0  0  0  0  0  0  0  0  0  0  0
    0.5166   -3.7697   -0.7618 H   0  0  0  0  0  0  0  0  0  0  0  0
   -0.9151   -2.7132   -1.0474 H   0  0  0  0  0  0  0  0  0  0  0  0
   -0.6360   -3.2832    1.0227 C   0  0  0  0  0  0  0  0  0  0  0  0
   -1.2479   -2.4311    1.3829 H   0  0  0  0  0  0  0  0  0  0  0  0
   -1.3461   -4.1246    0.8762 H   0  0  0  0  0  0  0  0  0  0  0  0
    0.4301   -3.6497    2.0531 C   0  0  0  0  0  0  0  0  0  0  0  0
    1.0525   -4.5047    1.7132 H   0  0  0  0  0  0  0  0  0  0  0  0
   -0.0294   -3.9377    3.0196 H   0  0  0  0  0  0  0  0  0  0  0  0
    1.1131   -2.7988    2.2543 H   0  0  0  0  0  0  0  0  0  0  0  0
  2 10  1  0  0  0  0
  5  6  1  0  0  0  0
  6  3  1  0  0  0  0
  6  7  2  0  0  0  0
  7  1  1  0  0  0  0
  8  9  1  0  0  0  0
  8  7  1  0  0  0  0
 10  8  2  0  0  0  0
 11 10  1  0  0  0  0
 11  5  1  0  0  0  0
 12 11  1  0  0  0  0
 13  4  1  0  0  0  0
 13  5  2  0  0  0  0
 14 13  1  0  0  0  0
 15  4  1  0  0  0  0
 15 18  1  0  0  0  0
 16 15  1  0  0  0  0
 17 15  1  0  0  0  0
 18 19  1  0  0  0  0
 18 21  1  0  0  0  0
 20 18  1  0  0  0  0
 21 24  1  0  0  0  0
 21 23  1  0  0  0  0
 22 21  1  0  0  0  0
M  CHG  1   3  -1
M  END
