1,4
 OpenBabel05122313063D

 33 35  0  0  1  0  0  0  0  0999 V2000
    1.6765    1.8904   -0.2858 O   0  5  0  0  0  0  0  0  0  0  0  0
    5.0131   -0.4114   -1.0681 O   0  0  0  0  0  0  0  0  0  0  0  0
    3.6079   -2.2025   -1.4071 O   0  0  0  0  0  0  0  0  0  0  0  0
    1.4282   -0.6775   -0.2427 N   0  0  0  0  0  2  0  0  0  0  0  0
    1.3517   -1.7078   -0.2371 H   0  0  0  0  0  0  0  0  0  0  0  0
    2.7489    1.2199   -0.4520 C   0  0  0  0  0  0  0  0  0  0  0  0
    2.6592   -0.2129   -0.4396 C   0  0  0  0  0  0  0  0  0  0  0  0
    3.8520   -1.1336   -0.5384 C   0  0  2  0  0  0  0  0  0  0  0  0
    5.1404    0.9351   -0.9665 C   0  0  0  0  0  0  0  0  0  0  0  0
    6.4175    1.4737   -1.2173 C   0  0  0  0  0  0  0  0  0  0  0  0
    7.2413    0.7827   -1.4450 H   0  0  0  0  0  0  0  0  0  0  0  0
    6.6089    2.8578   -1.1679 C   0  0  0  0  0  0  0  0  0  0  0  0
    7.6124    3.2669   -1.3606 H   0  0  0  0  0  0  0  0  0  0  0  0
    5.5403    3.7313   -0.8698 C   0  0  0  0  0  0  0  0  0  0  0  0
    5.7085    4.8172   -0.8322 H   0  0  0  0  0  0  0  0  0  0  0  0
    4.2730    3.2057   -0.6246 C   0  0  0  0  0  0  0  0  0  0  0  0
    3.4105    3.8480   -0.3948 H   0  0  0  0  0  0  0  0  0  0  0  0
    4.0565    1.8091   -0.6683 C   0  0  0  0  0  0  0  0  0  0  0  0
    3.2914   -1.8386   -2.7552 C   0  0  0  0  0  0  0  0  0  0  0  0
    2.3816   -1.2005   -2.8128 H   0  0  0  0  0  0  0  0  0  0  0  0
    3.1084   -2.7872   -3.2920 H   0  0  0  0  0  0  0  0  0  0  0  0
    4.1382   -1.3026   -3.2315 H   0  0  0  0  0  0  0  0  0  0  0  0
    4.2587   -1.7306    0.8082 C   0  0  0  0  0  0  0  0  0  0  0  0
    5.2594   -2.7233    0.8136 C   0  0  0  0  0  0  0  0  0  0  0  0
    5.6852   -3.0575   -0.1431 H   0  0  0  0  0  0  0  0  0  0  0  0
    5.6924   -3.2765    2.0240 C   0  0  0  0  0  0  0  0  0  0  0  0
    6.4712   -4.0543    2.0226 H   0  0  0  0  0  0  0  0  0  0  0  0
    5.1331   -2.8413    3.2387 C   0  0  0  0  0  0  0  0  0  0  0  0
    5.4752   -3.2764    4.1902 H   0  0  0  0  0  0  0  0  0  0  0  0
    4.1391   -1.8531    3.2342 C   0  0  0  0  0  0  0  0  0  0  0  0
    3.6939   -1.5077    4.1793 H   0  0  0  0  0  0  0  0  0  0  0  0
    3.6996   -1.2932    2.0227 C   0  0  0  0  0  0  0  0  0  0  0  0
    2.9118   -0.5233    2.0422 H   0  0  0  0  0  0  0  0  0  0  0  0
  2  9  1  0  0  0  0
  2  8  1  0  0  0  0
  4  5  1  0  0  0  0
  6  7  2  0  0  0  0
  6  1  1  0  0  0  0
  7  4  1  0  0  0  0
  8  3  1  6  0  0  0
  8  7  1  0  0  0  0
  8 23  1  0  0  0  0
  9 18  1  0  0  0  0
 10 12  1  0  0  0  0
 10  9  2  0  0  0  0
 11 10  1  0  0  0  0
 12 14  2  0  0  0  0
 13 12  1  0  0  0  0
 14 15  1  0  0  0  0
 14 16  1  0  0  0  0
 16 17  1  0  0  0  0
 18 16  2  0  0  0  0
 18  6  1  0  0  0  0
 19  3  1  0  0  0  0
 20 19  1  0  0  0  0
 21 19  1  0  0  0  0
 22 19  1  0  0  0  0
 23 24  2  0  0  0  0
 23 32  1  0  0  0  0
 24 26  1  0  0  0  0
 25 24  1  0  0  0  0
 26 28  2  0  0  0  0
 27 26  1  0  0  0  0
 28 29  1  0  0  0  0
 30 28  1  0  0  0  0
 30 31  1  0  0  0  0
 32 33  1  0  0  0  0
 32 30  2  0  0  0  0
M  CHG  1   1  -1
M  END
