1,2
 OpenBabel05122313063D

 35 36  0  0  1  0  0  0  0  0999 V2000
    0.4988   -1.7096   -1.3686 O   0  0  0  0  0  1  0  0  0  0  0  0
   -1.0760   -0.1078    0.0264 N   0  0  0  0  0  2  0  0  0  0  0  0
   -1.5201   -1.5312   -0.0888 C   0  0  2  0  0  0  0  0  0  0  0  0
   -1.0612   -2.0755    0.7736 H   0  0  0  0  0  0  0  0  0  0  0  0
   -0.8348   -2.1444   -1.3383 C   0  0  0  0  0  0  0  0  0  0  0  0
   -0.8872   -3.2590   -1.2854 H   0  0  0  0  0  0  0  0  0  0  0  0
   -1.3619   -1.8368   -2.2712 H   0  0  0  0  0  0  0  0  0  0  0  0
   -2.0370    0.9246    0.1169 C   0  0  0  0  0  0  0  0  0  0  0  0
   -2.8888    1.2667   -0.9774 C   0  0  0  0  0  0  0  0  0  0  0  0
   -3.8169    2.3154   -0.8280 C   0  0  0  0  0  0  0  0  0  0  0  0
   -4.4607    2.5753   -1.6835 H   0  0  0  0  0  0  0  0  0  0  0  0
   -3.9183    3.0406    0.3646 C   0  0  0  0  0  0  0  0  0  0  0  0
   -4.6479    3.8588    0.4592 H   0  0  0  0  0  0  0  0  0  0  0  0
   -3.0733    2.7163    1.4333 C   0  0  0  0  0  0  0  0  0  0  0  0
   -3.1402    3.2790    2.3781 H   0  0  0  0  0  0  0  0  0  0  0  0
   -2.1387    1.6707    1.3300 C   0  0  0  0  0  0  0  0  0  0  0  0
   -2.7841    0.5690   -2.3058 C   0  0  0  0  0  0  0  0  0  0  0  0
   -1.7374    0.2792   -2.5182 H   0  0  0  0  0  0  0  0  0  0  0  0
   -3.1516    1.2186   -3.1240 H   0  0  0  0  0  0  0  0  0  0  0  0
   -3.3863   -0.3623   -2.3253 H   0  0  0  0  0  0  0  0  0  0  0  0
   -1.2639    1.3359    2.5095 C   0  0  0  0  0  0  0  0  0  0  0  0
   -1.5352    1.9470    3.3918 H   0  0  0  0  0  0  0  0  0  0  0  0
   -0.1894    1.5124    2.2966 H   0  0  0  0  0  0  0  0  0  0  0  0
   -1.3445    0.2647    2.7868 H   0  0  0  0  0  0  0  0  0  0  0  0
   -3.0115   -1.7954    0.0487 C   0  0  0  0  0  0  0  0  0  0  0  0
   -3.7417   -2.5065   -0.9249 C   0  0  0  0  0  0  0  0  0  0  0  0
   -3.2425   -2.8696   -1.8348 H   0  0  0  0  0  0  0  0  0  0  0  0
   -5.1119   -2.7650   -0.7549 C   0  0  0  0  0  0  0  0  0  0  0  0
   -5.6597   -3.3240   -1.5291 H   0  0  0  0  0  0  0  0  0  0  0  0
   -5.7797   -2.3113    0.3911 C   0  0  0  0  0  0  0  0  0  0  0  0
   -6.8551   -2.5064    0.5210 H   0  0  0  0  0  0  0  0  0  0  0  0
   -5.0618   -1.6129    1.3756 C   0  0  0  0  0  0  0  0  0  0  0  0
   -5.5717   -1.2574    2.2839 H   0  0  0  0  0  0  0  0  0  0  0  0
   -3.6934   -1.3667    1.2073 C   0  0  0  0  0  0  0  0  0  0  0  0
   -3.1398   -0.8275    1.9889 H   0  0  0  0  0  0  0  0  0  0  0  0
  1  5  1  0  0  0  0
  2  8  1  0  0  0  0
  3  2  1  0  0  0  0
  3 25  1  0  0  0  0
  3  4  1  1  0  0  0
  5  6  1  0  0  0  0
  5  3  1  0  0  0  0
  7  5  1  0  0  0  0
  8 16  1  0  0  0  0
  9 10  1  0  0  0  0
  9  8  2  0  0  0  0
 10 12  2  0  0  0  0
 11 10  1  0  0  0  0
 12 13  1  0  0  0  0
 12 14  1  0  0  0  0
 14 15  1  0  0  0  0
 16 14  2  0  0  0  0
 16 21  1  0  0  0  0
 17  9  1  0  0  0  0
 18 17  1  0  0  0  0
 19 17  1  0  0  0  0
 20 17  1  0  0  0  0
 21 24  1  0  0  0  0
 21 22  1  0  0  0  0
 23 21  1  0  0  0  0
 25 34  1  0  0  0  0
 26 28  1  0  0  0  0
 26 25  2  0  0  0  0
 27 26  1  0  0  0  0
 28 30  2  0  0  0  0
 29 28  1  0  0  0  0
 30 31  1  0  0  0  0
 30 32  1  0  0  0  0
 32 33  1  0  0  0  0
 34 32  2  0  0  0  0
 34 35  1  0  0  0  0
M  END
