1,20
 OpenBabel05122313063D

 22 22  0  0  1  0  0  0  0  0999 V2000
   -0.4615    1.0697    1.3244 O   0  5  0  0  0  0  0  0  0  0  0  0
    0.5228    1.9004    1.0003 C   0  0  0  0  0  0  0  0  0  0  0  0
    1.1079    2.5943    1.8088 O   0  0  0  0  0  0  0  0  0  0  0  0
    0.8513    1.9650   -0.5085 C   0  0  1  0  0  0  0  0  0  0  0  0
    0.3347    2.8721   -0.8884 H   0  0  0  0  0  0  0  0  0  0  0  0
    2.3682    2.0966   -0.7563 C   0  0  0  0  0  0  0  0  0  0  0  0
    2.5507    2.4222   -1.8004 H   0  0  0  0  0  0  0  0  0  0  0  0
    2.7197    2.9027   -0.0823 H   0  0  0  0  0  0  0  0  0  0  0  0
    3.0829    0.7934   -0.4748 C   0  0  0  0  0  0  0  0  0  0  0  0
    3.4032    0.4126    0.8479 C   0  0  0  0  0  0  0  0  0  0  0  0
    3.2042    1.1133    1.6726 H   0  0  0  0  0  0  0  0  0  0  0  0
    3.9784   -0.8405    1.1075 C   0  0  0  0  0  0  0  0  0  0  0  0
    4.2383   -1.1161    2.1408 H   0  0  0  0  0  0  0  0  0  0  0  0
    4.2368   -1.7379    0.0559 C   0  0  0  0  0  0  0  0  0  0  0  0
    4.6937   -2.7167    0.2642 H   0  0  0  0  0  0  0  0  0  0  0  0
    3.9302   -1.3700   -1.2630 C   0  0  0  0  0  0  0  0  0  0  0  0
    4.1523   -2.0552   -2.0947 H   0  0  0  0  0  0  0  0  0  0  0  0
    3.3575   -0.1121   -1.5250 C   0  0  0  0  0  0  0  0  0  0  0  0
    3.1578    0.1867   -2.5679 H   0  0  0  0  0  0  0  0  0  0  0  0
    0.2630    0.7769   -1.1910 N   0  0  0  0  0  0  0  0  0  0  0  0
    1.0320    0.0939   -1.3213 H   0  0  0  0  0  0  0  0  0  0  0  0
   -0.0556    1.0089   -2.1397 H   0  0  0  0  0  0  0  0  0  0  0  0
  2  1  1  0  0  0  0
  2  3  2  0  0  0  0
  4  5  1  6  0  0  0
  4  2  1  0  0  0  0
  6  4  1  0  0  0  0
  6  9  1  0  0  0  0
  6  8  1  0  0  0  0
  7  6  1  0  0  0  0
  9 10  1  0  0  0  0
 10 12  2  0  0  0  0
 10 11  1  0  0  0  0
 12 13  1  0  0  0  0
 14 15  1  0  0  0  0
 14 12  1  0  0  0  0
 16 14  2  0  0  0  0
 17 16  1  0  0  0  0
 18 16  1  0  0  0  0
 18  9  2  0  0  0  0
 19 18  1  0  0  0  0
 20  4  1  0  0  0  0
 21 20  1  0  0  0  0
 22 20  1  0  0  0  0
M  CHG  1   1  -1
M  END
