1,2
 OpenBabel05122313063D

 23 24  0  0  0  0  0  0  0  0999 V2000
    0.5314    0.9607   -0.7540 O   0  5  0  0  0  0  0  0  0  0  0  0
    1.3637   -1.2777   -1.6737 N   0  0  0  0  0  2  0  0  0  0  0  0
    1.6379    1.0490   -1.3991 C   0  0  0  0  0  0  0  0  0  0  0  0
    2.3312    2.3454   -1.3630 C   0  0  0  0  0  0  0  0  0  0  0  0
    3.7420    2.4642   -1.3846 C   0  0  0  0  0  0  0  0  0  0  0  0
    4.3692    1.5630   -1.4374 H   0  0  0  0  0  0  0  0  0  0  0  0
    4.3482    3.7229   -1.2742 C   0  0  0  0  0  0  0  0  0  0  0  0
    5.4461    3.7998   -1.2803 H   0  0  0  0  0  0  0  0  0  0  0  0
    3.5630    4.8791   -1.1379 C   0  0  0  0  0  0  0  0  0  0  0  0
    4.0436    5.8657   -1.0553 H   0  0  0  0  0  0  0  0  0  0  0  0
    2.1616    4.7683   -1.0967 C   0  0  0  0  0  0  0  0  0  0  0  0
    1.5378    5.6682   -0.9835 H   0  0  0  0  0  0  0  0  0  0  0  0
    1.5489    3.5166   -1.2025 C   0  0  0  0  0  0  0  0  0  0  0  0
    0.4541    3.4219   -1.1712 H   0  0  0  0  0  0  0  0  0  0  0  0
    2.1100   -0.1801   -2.0298 C   0  0  0  0  0  0  0  0  0  0  0  0
    1.6702   -2.4847   -2.1781 C   0  0  0  0  0  0  0  0  0  0  0  0
    1.0045   -3.3024   -1.8553 H   0  0  0  0  0  0  0  0  0  0  0  0
    2.7390   -2.6703   -3.0625 C   0  0  0  0  0  0  0  0  0  0  0  0
    2.9552   -3.6772   -3.4462 H   0  0  0  0  0  0  0  0  0  0  0  0
    3.4945   -1.5564   -3.4643 C   0  0  0  0  0  0  0  0  0  0  0  0
    4.3174   -1.6661   -4.1860 H   0  0  0  0  0  0  0  0  0  0  0  0
    3.1723   -0.2978   -2.9501 C   0  0  0  0  0  0  0  0  0  0  0  0
    3.7131    0.6005   -3.2739 H   0  0  0  0  0  0  0  0  0  0  0  0
  3  4  1  0  0  0  0
  3  1  1  0  0  0  0
  4 13  1  0  0  0  0
  5  4  2  0  0  0  0
  5  7  1  0  0  0  0
  6  5  1  0  0  0  0
  7  9  2  0  0  0  0
  8  7  1  0  0  0  0
  9 11  1  0  0  0  0
  9 10  1  0  0  0  0
 11 12  1  0  0  0  0
 13 14  1  0  0  0  0
 13 11  2  0  0  0  0
 15  2  1  0  0  0  0
 15  3  2  0  0  0  0
 16 17  1  0  0  0  0
 16  2  1  0  0  0  0
 18 16  2  0  0  0  0
 19 18  1  0  0  0  0
 20 18  1  0  0  0  0
 20 22  2  0  0  0  0
 21 20  1  0  0  0  0
 22 15  1  0  0  0  0
 23 22  1  0  0  0  0
M  CHG  1   1  -1
M  END
