1,2
 OpenBabel05122313063D

 47 48  0  0  0  0  0  0  0  0999 V2000
    0.4765   -1.5667    0.0457 O   0  5  0  0  0  0  0  0  0  0  0  0
    0.4533    0.9823    0.0460 N   0  0  0  0  0  2  0  0  0  0  0  0
    1.6543   -1.0304    0.0212 C   0  0  0  0  0  0  0  0  0  0  0  0
    2.8808   -1.7833    0.0337 C   0  0  0  0  0  0  0  0  0  0  0  0
    4.0517   -1.0361    0.0895 C   0  0  0  0  0  0  0  0  0  0  0  0
    5.0019   -1.5809    0.0856 H   0  0  0  0  0  0  0  0  0  0  0  0
    4.1157    0.4024    0.1570 C   0  0  0  0  0  0  0  0  0  0  0  0
    2.9311    1.1243    0.1389 C   0  0  0  0  0  0  0  0  0  0  0  0
    2.9302    2.2204    0.1948 H   0  0  0  0  0  0  0  0  0  0  0  0
    1.6919    0.4331    0.0405 C   0  0  0  0  0  0  0  0  0  0  0  0
    2.8605   -3.3151   -0.0392 C   0  0  0  0  0  0  0  0  0  0  0  0
    2.1461   -3.7504   -1.3421 C   0  0  0  0  0  0  0  0  0  0  0  0
    1.1081   -3.3706   -1.3832 H   0  0  0  0  0  0  0  0  0  0  0  0
    2.1181   -4.8572   -1.4031 H   0  0  0  0  0  0  0  0  0  0  0  0
    2.6850   -3.3718   -2.2336 H   0  0  0  0  0  0  0  0  0  0  0  0
    2.1094   -3.8786    1.1917 C   0  0  0  0  0  0  0  0  0  0  0  0
    2.6126   -3.5775    2.1330 H   0  0  0  0  0  0  0  0  0  0  0  0
    2.1024   -4.9869    1.1515 H   0  0  0  0  0  0  0  0  0  0  0  0
    1.0613   -3.5271    1.2232 H   0  0  0  0  0  0  0  0  0  0  0  0
    4.2830   -3.8997   -0.0483 C   0  0  0  0  0  0  0  0  0  0  0  0
    4.8706   -3.5523   -0.9221 H   0  0  0  0  0  0  0  0  0  0  0  0
    4.2265   -5.0044   -0.1071 H   0  0  0  0  0  0  0  0  0  0  0  0
    4.8443   -3.6462    0.8739 H   0  0  0  0  0  0  0  0  0  0  0  0
    5.4612    1.1442    0.2472 C   0  0  0  0  0  0  0  0  0  0  0  0
    6.6655    0.1862    0.2241 C   0  0  0  0  0  0  0  0  0  0  0  0
    6.6580   -0.5154    1.0825 H   0  0  0  0  0  0  0  0  0  0  0  0
    7.6040    0.7711    0.2871 H   0  0  0  0  0  0  0  0  0  0  0  0
    6.7095   -0.4061   -0.7119 H   0  0  0  0  0  0  0  0  0  0  0  0
    5.4990    1.9486    1.5680 C   0  0  0  0  0  0  0  0  0  0  0  0
    4.6815    2.6948    1.6210 H   0  0  0  0  0  0  0  0  0  0  0  0
    6.4596    2.4956    1.6538 H   0  0  0  0  0  0  0  0  0  0  0  0
    5.4070    1.2782    2.4462 H   0  0  0  0  0  0  0  0  0  0  0  0
    5.5822    2.1119   -0.9534 C   0  0  0  0  0  0  0  0  0  0  0  0
    5.5445    1.5616   -1.9149 H   0  0  0  0  0  0  0  0  0  0  0  0
    6.5466    2.6572   -0.9074 H   0  0  0  0  0  0  0  0  0  0  0  0
    4.7710    2.8667   -0.9605 H   0  0  0  0  0  0  0  0  0  0  0  0
    0.2720    2.3896    0.0372 C   0  0  0  0  0  0  0  0  0  0  0  0
    0.7666    3.1499   -1.0448 C   0  0  0  0  0  0  0  0  0  0  0  0
    1.3153    2.6422   -1.8511 H   0  0  0  0  0  0  0  0  0  0  0  0
    0.5077    4.5270   -1.0967 C   0  0  0  0  0  0  0  0  0  0  0  0
    0.8847    5.1168   -1.9456 H   0  0  0  0  0  0  0  0  0  0  0  0
   -0.2295    5.1504   -0.0764 C   0  0  0  0  0  0  0  0  0  0  0  0
   -0.4235    6.2323   -0.1185 H   0  0  0  0  0  0  0  0  0  0  0  0
   -0.7211    4.3878    0.9967 C   0  0  0  0  0  0  0  0  0  0  0  0
   -1.2963    4.8728    1.7994 H   0  0  0  0  0  0  0  0  0  0  0  0
   -0.4838    3.0082    1.0523 C   0  0  0  0  0  0  0  0  0  0  0  0
   -0.8700    2.3988    1.8818 H   0  0  0  0  0  0  0  0  0  0  0  0
  3  4  2  0  0  0  0
  3 10  1  0  0  0  0
  3  1  1  0  0  0  0
  4  5  1  0  0  0  0
  5  7  2  0  0  0  0
  6  5  1  0  0  0  0
  7 24  1  0  0  0  0
  8  7  1  0  0  0  0
  8  9  1  0  0  0  0
 10  2  1  0  0  0  0
 10  8  2  0  0  0  0
 11  4  1  0  0  0  0
 11 16  1  0  0  0  0
 12 11  1  0  0  0  0
 13 12  1  0  0  0  0
 14 12  1  0  0  0  0
 15 12  1  0  0  0  0
 16 19  1  0  0  0  0
 16 17  1  0  0  0  0
 18 16  1  0  0  0  0
 20 11  1  0  0  0  0
 20 23  1  0  0  0  0
 21 20  1  0  0  0  0
 22 20  1  0  0  0  0
 24 29  1  0  0  0  0
 25 24  1  0  0  0  0
 25 27  1  0  0  0  0
 25 26  1  0  0  0  0
 28 25  1  0  0  0  0
 29 30  1  0  0  0  0
 29 31  1  0  0  0  0
 29 32  1  0  0  0  0
 33 35  1  0  0  0  0
 33 24  1  0  0  0  0
 34 33  1  0  0  0  0
 36 33  1  0  0  0  0
 37  2  1  0  0  0  0
 37 46  1  0  0  0  0
 38 37  2  0  0  0  0
 39 38  1  0  0  0  0
 40 38  1  0  0  0  0
 40 42  2  0  0  0  0
 41 40  1  0  0  0  0
 42 44  1  0  0  0  0
 43 42  1  0  0  0  0
 44 46  2  0  0  0  0
 44 45  1  0  0  0  0
 46 47  1  0  0  0  0
M  CHG  1   1  -1
M  END
