1,4
 OpenBabel05122313063D

 55 56  0  0  0  0  0  0  0  0999 V2000
   -0.6577   -1.9867    0.0678 O   0  5  0  0  0  0  0  0  0  0  0  0
    1.9501    4.2296    2.0393 O   0  0  0  0  0  0  0  0  0  0  0  0
   -0.5973    4.9641   -1.9388 O   0  0  0  0  0  0  0  0  0  0  0  0
   -0.4058    0.5497    0.1098 N   0  0  0  0  0  2  0  0  0  0  0  0
   -1.7802   -1.3461    0.1143 C   0  0  0  0  0  0  0  0  0  0  0  0
   -3.0691   -1.9885    0.1807 C   0  0  0  0  0  0  0  0  0  0  0  0
   -4.1598   -1.1406    0.3055 C   0  0  0  0  0  0  0  0  0  0  0  0
   -5.1584   -1.5943    0.3445 H   0  0  0  0  0  0  0  0  0  0  0  0
   -4.0902    0.3007    0.3942 C   0  0  0  0  0  0  0  0  0  0  0  0
   -2.8524    0.9154    0.3286 C   0  0  0  0  0  0  0  0  0  0  0  0
   -2.7427    2.0032    0.3977 H   0  0  0  0  0  0  0  0  0  0  0  0
   -1.6853    0.1132    0.1583 C   0  0  0  0  0  0  0  0  0  0  0  0
   -3.1892   -3.5147    0.0885 C   0  0  0  0  0  0  0  0  0  0  0  0
   -2.5841   -3.9899   -1.2550 C   0  0  0  0  0  0  0  0  0  0  0  0
   -3.1321   -3.5502   -2.1123 H   0  0  0  0  0  0  0  0  0  0  0  0
   -2.6582   -5.0938   -1.3307 H   0  0  0  0  0  0  0  0  0  0  0  0
   -1.5199   -3.7031   -1.3459 H   0  0  0  0  0  0  0  0  0  0  0  0
   -2.4297   -4.1625    1.2717 C   0  0  0  0  0  0  0  0  0  0  0  0
   -1.3544   -3.9052    1.2525 H   0  0  0  0  0  0  0  0  0  0  0  0
   -2.5235   -5.2662    1.2183 H   0  0  0  0  0  0  0  0  0  0  0  0
   -2.8554   -3.8333    2.2415 H   0  0  0  0  0  0  0  0  0  0  0  0
   -4.6568   -3.9707    0.1469 C   0  0  0  0  0  0  0  0  0  0  0  0
   -5.1452   -3.6834    1.1003 H   0  0  0  0  0  0  0  0  0  0  0  0
   -4.7025   -5.0749    0.0724 H   0  0  0  0  0  0  0  0  0  0  0  0
   -5.2546   -3.5582   -0.6910 H   0  0  0  0  0  0  0  0  0  0  0  0
   -5.3970    1.0868    0.5506 C   0  0  0  0  0  0  0  0  0  0  0  0
   -6.1059    0.6345    1.8493 C   0  0  0  0  0  0  0  0  0  0  0  0
   -6.3474   -0.4469    1.8403 H   0  0  0  0  0  0  0  0  0  0  0  0
   -7.0596    1.1865    1.9724 H   0  0  0  0  0  0  0  0  0  0  0  0
   -5.4747    0.8359    2.7381 H   0  0  0  0  0  0  0  0  0  0  0  0
   -6.3059    0.7944   -0.6672 C   0  0  0  0  0  0  0  0  0  0  0  0
   -5.8183    1.1073   -1.6122 H   0  0  0  0  0  0  0  0  0  0  0  0
   -7.2594    1.3520   -0.5701 H   0  0  0  0  0  0  0  0  0  0  0  0
   -6.5583   -0.2809   -0.7548 H   0  0  0  0  0  0  0  0  0  0  0  0
   -5.1505    2.6025    0.6264 C   0  0  0  0  0  0  0  0  0  0  0  0
   -4.5209    2.8764    1.4968 H   0  0  0  0  0  0  0  0  0  0  0  0
   -6.1161    3.1343    0.7352 H   0  0  0  0  0  0  0  0  0  0  0  0
   -4.6615    2.9875   -0.2915 H   0  0  0  0  0  0  0  0  0  0  0  0
   -0.0975    1.9372    0.1182 C   0  0  0  0  0  0  0  0  0  0  0  0
    0.7592    2.4450    1.0988 C   0  0  0  0  0  0  0  0  0  0  0  0
    1.1448    1.8109    1.9068 H   0  0  0  0  0  0  0  0  0  0  0  0
    1.1267    3.8099    1.0484 C   0  0  0  0  0  0  0  0  0  0  0  0
    0.6511    4.6329    0.0139 C   0  0  0  0  0  0  0  0  0  0  0  0
    0.9151    5.6943   -0.0656 H   0  0  0  0  0  0  0  0  0  0  0  0
   -0.2027    4.0963   -0.9784 C   0  0  0  0  0  0  0  0  0  0  0  0
   -0.5878    2.7425   -0.9361 C   0  0  0  0  0  0  0  0  0  0  0  0
   -1.2121    2.2831   -1.7108 H   0  0  0  0  0  0  0  0  0  0  0  0
    2.3370    5.5960    2.0663 C   0  0  0  0  0  0  0  0  0  0  0  0
    2.9116    5.8784    1.1567 H   0  0  0  0  0  0  0  0  0  0  0  0
    2.9823    5.7190    2.9548 H   0  0  0  0  0  0  0  0  0  0  0  0
    1.4572    6.2693    2.1597 H   0  0  0  0  0  0  0  0  0  0  0  0
   -1.4751    4.5002   -2.9547 C   0  0  0  0  0  0  0  0  0  0  0  0
   -1.0145    3.6861   -3.5564 H   0  0  0  0  0  0  0  0  0  0  0  0
   -1.6759    5.3663   -3.6105 H   0  0  0  0  0  0  0  0  0  0  0  0
   -2.4358    4.1347   -2.5289 H   0  0  0  0  0  0  0  0  0  0  0  0
  1  5  1  0  0  0  0
  2 48  1  0  0  0  0
  3 45  1  0  0  0  0
  4 39  1  0  0  0  0
  4 12  1  0  0  0  0
  5 12  2  0  0  0  0
  5  6  1  0  0  0  0
  6  7  2  0  0  0  0
  7  8  1  0  0  0  0
  7  9  1  0  0  0  0
  9 26  1  0  0  0  0
 10  9  2  0  0  0  0
 10 11  1  0  0  0  0
 12 10  1  0  0  0  0
 13 22  1  0  0  0  0
 13  6  1  0  0  0  0
 13 18  1  0  0  0  0
 14 13  1  0  0  0  0
 15 14  1  0  0  0  0
 16 14  1  0  0  0  0
 17 14  1  0  0  0  0
 18 21  1  0  0  0  0
 19 18  1  0  0  0  0
 20 18  1  0  0  0  0
 22 23  1  0  0  0  0
 24 22  1  0  0  0  0
 25 22  1  0  0  0  0
 26 35  1  0  0  0  0
 26 27  1  0  0  0  0
 27 29  1  0  0  0  0
 27 30  1  0  0  0  0
 28 27  1  0  0  0  0
 31 33  1  0  0  0  0
 31 26  1  0  0  0  0
 32 31  1  0  0  0  0
 34 31  1  0  0  0  0
 35 37  1  0  0  0  0
 35 36  1  0  0  0  0
 38 35  1  0  0  0  0
 39 40  1  0  0  0  0
 40 41  1  0  0  0  0
 42 40  2  0  0  0  0
 42  2  1  0  0  0  0
 43 42  1  0  0  0  0
 44 43  1  0  0  0  0
 45 46  1  0  0  0  0
 45 43  2  0  0  0  0
 46 39  2  0  0  0  0
 47 46  1  0  0  0  0
 48 51  1  0  0  0  0
 48 50  1  0  0  0  0
 49 48  1  0  0  0  0
 52 55  1  0  0  0  0
 52  3  1  0  0  0  0
 53 52  1  0  0  0  0
 54 52  1  0  0  0  0
M  CHG  1   1  -1
M  END
