5,8
 OpenBabel05122313063D

 20 20  0  0  1  0  0  0  0  0999 V2000
   -6.0961    1.6454    0.3601 O   0  0  0  0  0  0  0  0  0  0  0  0
   -5.9932   -0.3737   -0.6485 O   0  0  0  0  0  0  0  0  0  0  0  0
   -4.1039   -2.0157   -1.1566 O   0  5  0  0  0  0  0  0  0  0  0  0
   -5.2573   -1.0778   -0.8854 H   0  0  0  0  0  0  0  0  0  0  0  0
   -1.8847   -2.2365   -0.7968 O   0  0  0  0  0  0  0  0  0  0  0  0
   -3.3997    1.6947    0.8443 N   0  0  0  0  0  0  0  0  0  0  0  0
   -3.9625    2.4922    1.1615 H   0  0  0  0  0  0  0  0  0  0  0  0
   -1.7697    0.2982    0.3785 N   0  0  0  0  0  2  0  0  0  0  0  0
   -2.9514   -0.2525   -0.0778 C   0  0  0  0  0  0  0  0  0  0  0  0
   -3.9926    0.6273    0.2059 C   0  0  0  0  0  0  0  0  0  0  0  0
   -2.0578    1.4768    0.9448 C   0  0  2  0  0  3  0  0  0  0  0  0
   -1.0866    2.3866    1.6268 C   0  0  0  0  0  0  0  0  0  0  0  0
   -1.1206    2.1838    2.7208 H   0  0  0  0  0  0  0  0  0  0  0  0
   -0.0727    2.0783    1.3012 H   0  0  0  0  0  0  0  0  0  0  0  0
   -1.3299    3.8772    1.3677 C   0  0  0  0  0  0  0  0  0  0  0  0
   -1.2908    4.1152    0.2862 H   0  0  0  0  0  0  0  0  0  0  0  0
   -0.5663    4.4918    1.8823 H   0  0  0  0  0  0  0  0  0  0  0  0
   -2.3179    4.2059    1.7500 H   0  0  0  0  0  0  0  0  0  0  0  0
   -5.4706    0.6644   -0.0298 C   0  0  0  0  0  0  0  0  0  0  0  0
   -2.9990   -1.6020   -0.7337 C   0  0  0  0  0  0  0  0  0  0  0  0
  2 19  1  0  0  0  0
  3 20  1  0  0  0  0
  4  2  1  0  0  0  0
  5 20  2  0  0  0  0
  6 11  1  0  0  0  0
  6  7  1  0  0  0  0
  8 11  1  0  0  0  0
  9 10  2  0  0  0  0
  9  8  1  0  0  0  0
 10  6  1  0  0  0  0
 11 12  1  1  0  0  0
 12 13  1  0  0  0  0
 14 12  1  0  0  0  0
 15 12  1  0  0  0  0
 15 18  1  0  0  0  0
 15 17  1  0  0  0  0
 16 15  1  0  0  0  0
 19 10  1  0  0  0  0
 19  1  2  0  0  0  0
 20  9  1  0  0  0  0
M  CHG  1   3  -1
M  END
