1,2
 OpenBabel05122313063D

 45 48  0  0  0  0  0  0  0  0999 V2000
   -0.2491   -1.2906    0.2681 O   0  5  0  0  0  0  0  0  0  0  0  0
   -1.1272    1.3424   -0.0817 N   0  0  0  0  0  2  0  0  0  0  0  0
    0.1462    1.5018   -0.4041 C   0  0  0  0  0  0  0  0  0  0  0  0
    0.4300    2.4806   -0.8347 H   0  0  0  0  0  0  0  0  0  0  0  0
    1.2023    0.5421   -0.3074 C   0  0  0  0  0  0  0  0  0  0  0  0
    0.9274   -0.8469    0.0029 C   0  0  0  0  0  0  0  0  0  0  0  0
    2.0657   -1.7293   -0.0242 C   0  0  0  0  0  0  0  0  0  0  0  0
    3.3577   -1.2918   -0.2933 C   0  0  0  0  0  0  0  0  0  0  0  0
    4.1945   -2.0037   -0.2867 H   0  0  0  0  0  0  0  0  0  0  0  0
    3.5831    0.0783   -0.5801 C   0  0  0  0  0  0  0  0  0  0  0  0
    2.5261    0.9776   -0.5982 C   0  0  0  0  0  3  0  0  0  0  0  0
    2.6944    2.0402   -0.8275 H   0  0  0  0  0  0  0  0  0  0  0  0
    1.7079   -3.7787    0.3947 I   0  0  0  0  0  0  0  0  0  0  0  0
    5.5598    0.7373   -0.9922 I   0  0  0  0  0  0  0  0  0  0  0  0
   -1.9776    2.4490   -0.4014 C   0  0  0  0  0  0  0  0  0  0  0  0
   -1.7504    3.7249    0.1847 C   0  0  0  0  0  0  0  0  0  0  0  0
   -2.6004    4.7917   -0.1784 C   0  0  0  0  0  0  0  0  0  0  0  0
   -2.4397    5.7751    0.2878 H   0  0  0  0  0  0  0  0  0  0  0  0
   -3.6501    4.6061   -1.0838 C   0  0  0  0  0  0  0  0  0  0  0  0
   -4.3018    5.4500   -1.3544 H   0  0  0  0  0  0  0  0  0  0  0  0
   -3.8739    3.3405   -1.6374 C   0  0  0  0  0  0  0  0  0  0  0  0
   -4.6896    3.1928   -2.3605 H   0  0  0  0  0  0  0  0  0  0  0  0
   -3.0521    2.2420   -1.3099 C   0  0  0  0  0  0  0  0  0  0  0  0
   -3.3594    0.9069   -1.8938 C   0  0  0  0  0  0  0  0  0  0  0  0
   -4.7056    0.4761   -1.9553 C   0  0  0  0  0  0  0  0  0  0  0  0
   -5.4943    1.1236   -1.5431 H   0  0  0  0  0  0  0  0  0  0  0  0
   -5.0455   -0.7706   -2.5011 C   0  0  0  0  0  0  0  0  0  0  0  0
   -6.1009   -1.0825   -2.5313 H   0  0  0  0  0  0  0  0  0  0  0  0
   -4.0431   -1.6210   -2.9947 C   0  0  0  0  0  0  0  0  0  0  0  0
   -4.3046   -2.6040   -3.4146 H   0  0  0  0  0  0  0  0  0  0  0  0
   -2.7037   -1.2035   -2.9520 C   0  0  0  0  0  0  0  0  0  0  0  0
   -1.9079   -1.8569   -3.3397 H   0  0  0  0  0  0  0  0  0  0  0  0
   -2.3645    0.0456   -2.4135 C   0  0  0  0  0  0  0  0  0  0  0  0
   -1.3136    0.3609   -2.4186 H   0  0  0  0  0  0  0  0  0  0  0  0
   -0.6606    3.9722    1.1718 C   0  0  0  0  0  0  0  0  0  0  0  0
   -0.4308    3.1016    2.2615 C   0  0  0  0  0  0  0  0  0  0  0  0
   -1.0517    2.2012    2.3722 H   0  0  0  0  0  0  0  0  0  0  0  0
    0.5839    3.3697    3.1886 C   0  0  0  0  0  0  0  0  0  0  0  0
    0.7446    2.6793    4.0305 H   0  0  0  0  0  0  0  0  0  0  0  0
    1.3946    4.5080    3.0464 C   0  0  0  0  0  0  0  0  0  0  0  0
    2.1973    4.7108    3.7714 H   0  0  0  0  0  0  0  0  0  0  0  0
    1.1771    5.3810    1.9700 C   0  0  0  0  0  0  0  0  0  0  0  0
    1.8101    6.2727    1.8445 H   0  0  0  0  0  0  0  0  0  0  0  0
    0.1577    5.1164    1.0435 C   0  0  0  0  0  0  0  0  0  0  0  0
    0.0031    5.7956    0.1909 H   0  0  0  0  0  0  0  0  0  0  0  0
  3  5  2  0  0  0  0
  3  2  1  0  0  0  0
  4  3  1  0  0  0  0
  5  6  1  0  0  0  0
  6  1  1  0  0  0  0
  7  6  2  0  0  0  0
  7 13  1  0  0  0  0
  8  9  1  0  0  0  0
  8  7  1  0  0  0  0
 10  8  2  0  0  0  0
 11 10  1  0  0  0  0
 11  5  1  0  0  0  0
 12 11  1  0  0  0  0
 14 10  1  0  0  0  0
 15  2  1  0  0  0  0
 15 16  1  0  0  0  0
 16 35  1  0  0  0  0
 17 16  2  0  0  0  0
 17 18  1  0  0  0  0
 19 17  1  0  0  0  0
 20 19  1  0  0  0  0
 21 23  1  0  0  0  0
 21 19  2  0  0  0  0
 22 21  1  0  0  0  0
 23 15  2  0  0  0  0
 24 23  1  0  0  0  0
 25 24  1  0  0  0  0
 25 26  1  0  0  0  0
 27 25  2  0  0  0  0
 28 27  1  0  0  0  0
 29 31  2  0  0  0  0
 29 27  1  0  0  0  0
 30 29  1  0  0  0  0
 31 33  1  0  0  0  0
 32 31  1  0  0  0  0
 33 24  2  0  0  0  0
 34 33  1  0  0  0  0
 35 36  1  0  0  0  0
 36 37  1  0  0  0  0
 36 38  2  0  0  0  0
 38 39  1  0  0  0  0
 40 38  1  0  0  0  0
 40 41  1  0  0  0  0
 42 40  2  0  0  0  0
 43 42  1  0  0  0  0
 44 35  2  0  0  0  0
 44 42  1  0  0  0  0
 45 44  1  0  0  0  0
M  CHG  1   1  -1
M  END
