1,4
 OpenBabel05122313063D

 26 27  0  0  1  0  0  0  0  0999 V2000
   -1.6026    1.0271    0.5670 O   0  5  0  0  0  0  0  0  0  0  0  0
    4.3018    5.5327   -0.0502 O   0  0  0  0  0  0  0  0  0  0  0  0
    4.7112    3.3852    0.0845 O   0  0  0  0  0  0  0  0  0  0  0  0
    0.7473    2.4366   -0.0445 N   0  0  0  0  0  2  0  0  0  0  0  0
   -1.5399    3.2843   -0.0620 N   0  0  0  0  0  0  0  0  0  0  0  0
    3.9488    4.3507    0.0008 N   0  0  0  0  0  0  0  0  0  0  0  0
   -0.2019    3.4571   -0.0824 C   0  0  2  0  0  3  0  0  0  0  0  0
    0.2458    4.8191   -0.1495 C   0  0  0  0  0  0  0  0  0  0  0  0
   -0.5412    5.5826   -0.2024 H   0  0  0  0  0  0  0  0  0  0  0  0
    1.5865    5.1481   -0.1272 C   0  0  0  0  0  0  0  0  0  0  0  0
    1.9529    6.1826   -0.1673 H   0  0  0  0  0  0  0  0  0  0  0  0
    2.5074    4.0851   -0.0423 C   0  0  0  0  0  0  0  0  0  0  0  0
    2.0580    2.7684   -0.0091 C   0  0  0  0  0  0  0  0  0  0  0  0
    2.7939    1.9555    0.0390 H   0  0  0  0  0  0  0  0  0  0  0  0
   -2.1559    2.1483    0.2609 C   0  0  0  0  0  0  0  0  0  0  0  0
   -3.6487    2.1744    0.2884 C   0  0  0  0  0  0  0  0  0  0  0  0
   -4.3560    3.3630    0.0081 C   0  0  0  0  0  0  0  0  0  0  0  0
   -3.7742    4.2701   -0.2080 H   0  0  0  0  0  0  0  0  0  0  0  0
   -5.7563    3.3661    0.0059 C   0  0  0  0  0  0  0  0  0  0  0  0
   -6.3021    4.2961   -0.2151 H   0  0  0  0  0  0  0  0  0  0  0  0
   -6.4651    2.1849    0.2870 C   0  0  0  0  0  0  0  0  0  0  0  0
   -7.5661    2.1893    0.2845 H   0  0  0  0  0  0  0  0  0  0  0  0
   -5.7660    0.9995    0.5707 C   0  0  0  0  0  0  0  0  0  0  0  0
   -6.3165    0.0709    0.7861 H   0  0  0  0  0  0  0  0  0  0  0  0
   -4.3658    0.9925    0.5722 C   0  0  0  0  0  0  0  0  0  0  0  0
   -3.8049    0.0709    0.7792 H   0  0  0  0  0  0  0  0  0  0  0  0
  2  6  2  0  0  0  0
  4 13  1  0  0  0  0
  5 15  2  0  0  0  0
  6  3  2  0  0  0  0
  7  5  1  6  0  0  0
  7  4  1  0  0  0  0
  8 10  2  0  0  0  0
  8  7  1  0  0  0  0
  9  8  1  0  0  0  0
 10 12  1  0  0  0  0
 11 10  1  0  0  0  0
 12 13  2  0  0  0  0
 12  6  1  0  0  0  0
 13 14  1  0  0  0  0
 15 16  1  0  0  0  0
 15  1  1  0  0  0  0
 16 25  1  0  0  0  0
 17 16  2  0  0  0  0
 18 17  1  0  0  0  0
 19 17  1  0  0  0  0
 19 21  2  0  0  0  0
 20 19  1  0  0  0  0
 21 23  1  0  0  0  0
 22 21  1  0  0  0  0
 23 25  2  0  0  0  0
 23 24  1  0  0  0  0
 25 26  1  0  0  0  0
M  CHG  1   1  -1
M  END
