1,3
 OpenBabel05122313063D

 19 20  0  0  1  0  0  0  0  0999 V2000
    0.0175   -1.7790   -0.5980 O   0  5  0  0  0  0  0  0  0  0  0  0
    1.4318   -3.4024   -1.2987 O   0  0  0  0  0  0  0  0  0  0  0  0
    1.8639   -0.1237    0.0170 N   0  0  0  0  0  2  0  0  0  0  0  0
    2.3196   -1.3157   -0.4997 C   0  0  1  0  0  3  0  0  0  0  0  0
    3.6652   -1.5818   -0.6443 C   0  0  0  0  0  0  0  0  0  0  0  0
    4.6235   -0.6068   -0.2479 C   0  0  0  0  0  0  0  0  0  0  0  0
    6.0292   -0.7962   -0.3613 C   0  0  0  0  0  0  0  0  0  0  0  0
    6.9047    0.1998    0.0498 C   0  0  0  0  0  0  0  0  0  0  0  0
    6.4145    1.4209    0.5888 C   0  0  0  0  0  0  0  0  0  0  0  0
    5.0499    1.6369    0.7129 C   0  0  0  0  0  0  0  0  0  0  0  0
    4.1285    0.6336    0.2988 C   0  0  0  0  0  0  0  0  0  0  0  0
    2.7229    0.8157    0.4053 C   0  0  0  0  0  0  0  0  0  0  0  0
    1.2205   -2.2844   -0.8550 C   0  0  0  0  0  0  0  0  0  0  0  0
    3.9582   -2.5556   -1.0648 H   0  0  0  0  0  0  0  0  0  0  0  0
    6.4074   -1.7414   -0.7790 H   0  0  0  0  0  0  0  0  0  0  0  0
    7.9905    0.0464   -0.0416 H   0  0  0  0  0  0  0  0  0  0  0  0
    7.1254    2.1977    0.9074 H   0  0  0  0  0  0  0  0  0  0  0  0
    4.6621    2.5800    1.1270 H   0  0  0  0  0  0  0  0  0  0  0  0
    2.2821    1.7415    0.8091 H   0  0  0  0  0  0  0  0  0  0  0  0
  2 13  2  0  0  0  0
  3 12  1  0  0  0  0
  4 13  1  1  0  0  0
  4  3  1  0  0  0  0
  5  4  1  0  0  0  0
  5  6  2  0  0  0  0
  6 11  1  0  0  0  0
  7  6  1  0  0  0  0
  7  8  2  0  0  0  0
  8  9  1  0  0  0  0
  9 10  2  0  0  0  0
  9 17  1  0  0  0  0
 10 18  1  0  0  0  0
 11 12  2  0  0  0  0
 11 10  1  0  0  0  0
 12 19  1  0  0  0  0
 13  1  1  0  0  0  0
 14  5  1  0  0  0  0
 15  7  1  0  0  0  0
 16  8  1  0  0  0  0
M  CHG  1   1  -1
M  END
