1,3
 OpenBabel05122313063D

 38 40  0  0  0  0  0  0  0  0999 V2000
    1.5373    2.3130    0.7040 O   0  5  0  0  0  0  0  0  0  0  0  0
    2.7430    0.7746   -0.5871 N   0  0  0  0  0  0  0  0  0  0  0  0
    1.5366    0.2648   -0.9127 N   0  0  0  0  0  2  0  0  0  0  0  0
    5.1586    2.0277    0.1327 C   0  0  0  0  0  0  0  0  0  0  0  0
    5.1589    1.2059   -0.5974 H   0  0  0  0  0  0  0  0  0  0  0  0
    6.3492    2.6358    0.5485 C   0  0  0  0  0  0  0  0  0  0  0  0
    7.3117    2.2889    0.1424 H   0  0  0  0  0  0  0  0  0  0  0  0
    6.3184    3.6889    1.4798 C   0  0  0  0  0  0  0  0  0  0  0  0
    7.2564    4.1648    1.8048 H   0  0  0  0  0  0  0  0  0  0  0  0
    5.0888    4.1343    1.9930 C   0  0  0  0  0  0  0  0  0  0  0  0
    5.0623    4.9599    2.7206 H   0  0  0  0  0  0  0  0  0  0  0  0
    3.8945    3.5303    1.5787 C   0  0  0  0  0  0  0  0  0  0  0  0
    2.9196    3.8626    1.9633 H   0  0  0  0  0  0  0  0  0  0  0  0
    3.9201    2.4711    0.6471 C   0  0  0  0  0  0  0  0  0  0  0  0
    2.6413    1.8356    0.2340 C   0  0  0  0  0  0  0  0  0  0  0  0
   -0.8929   -0.3216   -2.3761 C   0  0  0  0  0  0  0  0  0  0  0  0
   -0.5613    0.7057   -2.5879 H   0  0  0  0  0  0  0  0  0  0  0  0
   -2.2336   -0.6728   -2.5863 C   0  0  0  0  0  0  0  0  0  0  0  0
   -2.9452    0.0896   -2.9372 H   0  0  0  0  0  0  0  0  0  0  0  0
   -2.6612   -1.9888   -2.3526 C   0  0  0  0  0  0  0  0  0  0  0  0
   -3.7143   -2.2647   -2.5135 H   0  0  0  0  0  0  0  0  0  0  0  0
   -1.7386   -2.9547   -1.9153 C   0  0  0  0  0  0  0  0  0  0  0  0
   -2.0711   -3.9863   -1.7246 H   0  0  0  0  0  0  0  0  0  0  0  0
   -0.3990   -2.6067   -1.7023 C   0  0  0  0  0  0  0  0  0  0  0  0
    0.3193   -3.3576   -1.3427 H   0  0  0  0  0  0  0  0  0  0  0  0
    0.0393   -1.2780   -1.9107 C   0  0  0  0  0  0  0  0  0  0  0  0
    1.4263   -0.8785   -1.5692 C   0  0  0  0  0  3  0  0  0  0  0  0
    2.5536   -1.7627   -1.9315 C   0  0  0  0  0  0  0  0  0  0  0  0
    2.4661   -2.5444   -3.1099 C   0  0  0  0  0  0  0  0  0  0  0  0
    1.5737   -2.4588   -3.7471 H   0  0  0  0  0  0  0  0  0  0  0  0
    3.5053   -3.4075   -3.4791 C   0  0  0  0  0  0  0  0  0  0  0  0
    3.4229   -3.9957   -4.4056 H   0  0  0  0  0  0  0  0  0  0  0  0
    4.6471   -3.5204   -2.6701 C   0  0  0  0  0  0  0  0  0  0  0  0
    5.4629   -4.2018   -2.9564 H   0  0  0  0  0  0  0  0  0  0  0  0
    4.7423   -2.7586   -1.4932 C   0  0  0  0  0  0  0  0  0  0  0  0
    5.6320   -2.8475   -0.8510 H   0  0  0  0  0  0  0  0  0  0  0  0
    3.7151   -1.8804   -1.1284 C   0  0  0  0  0  0  0  0  0  0  0  0
    3.7918   -1.2790   -0.2154 H   0  0  0  0  0  0  0  0  0  0  0  0
  2 15  2  0  0  0  0
  3  2  1  0  0  0  0
  4  6  2  0  0  0  0
  4 14  1  0  0  0  0
  5  4  1  0  0  0  0
  6  8  1  0  0  0  0
  7  6  1  0  0  0  0
  8  9  1  0  0  0  0
  8 10  2  0  0  0  0
 10 11  1  0  0  0  0
 12 13  1  0  0  0  0
 12 10  1  0  0  0  0
 14 12  2  0  0  0  0
 15 14  1  0  0  0  0
 15  1  1  0  0  0  0
 16 26  1  0  0  0  0
 17 16  1  0  0  0  0
 18 16  2  0  0  0  0
 18 20  1  0  0  0  0
 19 18  1  0  0  0  0
 20 22  2  0  0  0  0
 21 20  1  0  0  0  0
 22 23  1  0  0  0  0
 22 24  1  0  0  0  0
 24 25  1  0  0  0  0
 26 24  2  0  0  0  0
 26 27  1  0  0  0  0
 27  3  1  0  0  0  0
 28 27  1  0  0  0  0
 28 37  1  0  0  0  0
 29 28  2  0  0  0  0
 30 29  1  0  0  0  0
 31 29  1  0  0  0  0
 31 33  2  0  0  0  0
 32 31  1  0  0  0  0
 33 35  1  0  0  0  0
 34 33  1  0  0  0  0
 35 37  2  0  0  0  0
 35 36  1  0  0  0  0
 37 38  1  0  0  0  0
M  CHG  1   1  -1
M  END
