1,2
 OpenBabel05122313063D

 20 20  0  0  0  0  0  0  0  0999 V2000
   -1.6503   -1.1555    0.1285 O   0  5  0  0  0  0  0  0  0  0  0  0
   -1.0658    1.7228    0.1221 N   0  0  0  0  0  2  0  0  0  0  0  0
   -0.3267    2.8569    0.2583 N   0  0  0  0  0  0  0  0  0  0  0  0
   -3.2936    0.6481    0.0186 C   0  0  0  0  0  0  0  0  0  0  0  0
   -2.9038   -0.7348    0.0640 C   0  0  0  0  0  0  0  0  0  0  0  0
   -3.9242   -1.7243    0.0492 C   0  0  0  0  0  0  0  0  0  0  0  0
   -5.2736   -1.3821   -0.0210 C   0  0  0  0  0  0  0  0  0  0  0  0
   -5.6648   -0.0281   -0.0747 C   0  0  0  0  0  0  0  0  0  0  0  0
   -4.6806    0.9569   -0.0519 C   0  0  0  0  0  3  0  0  0  0  0  0
   -2.3810    1.7673    0.0682 C   0  0  0  0  0  0  0  0  0  0  0  0
   -0.8624    4.1368   -0.1176 C   0  0  0  0  0  0  0  0  0  0  0  0
    0.6642    2.6380    0.0544 H   0  0  0  0  0  0  0  0  0  0  0  0
   -3.6077   -2.7771    0.0909 H   0  0  0  0  0  0  0  0  0  0  0  0
   -6.0337   -2.1786   -0.0355 H   0  0  0  0  0  0  0  0  0  0  0  0
   -6.7275    0.2477   -0.1306 H   0  0  0  0  0  0  0  0  0  0  0  0
   -4.9710    2.0194   -0.0857 H   0  0  0  0  0  0  0  0  0  0  0  0
   -2.8521    2.7630    0.0979 H   0  0  0  0  0  0  0  0  0  0  0  0
   -1.3296    4.1342   -1.1337 H   0  0  0  0  0  0  0  0  0  0  0  0
   -0.0298    4.8645   -0.1128 H   0  0  0  0  0  0  0  0  0  0  0  0
   -1.6267    4.5002    0.6048 H   0  0  0  0  0  0  0  0  0  0  0  0
  2  3  1  0  0  0  0
  4  5  1  0  0  0  0
  4 10  2  0  0  0  0
  5  1  1  0  0  0  0
  6  5  2  0  0  0  0
  6 13  1  0  0  0  0
  7  6  1  0  0  0  0
  8  9  1  0  0  0  0
  8  7  2  0  0  0  0
  9  4  1  0  0  0  0
 10 17  1  0  0  0  0
 10  2  1  0  0  0  0
 11 19  1  0  0  0  0
 11  3  1  0  0  0  0
 11 20  1  0  0  0  0
 12  3  1  0  0  0  0
 14  7  1  0  0  0  0
 15  8  1  0  0  0  0
 16  9  1  0  0  0  0
 18 11  1  0  0  0  0
M  CHG  1   1  -1
M  END
