12,14
 OpenBabel05122313063D

 17 17  0  0  1  0  0  0  0  0999 V2000
   -0.4956   -0.4511    2.9187 C   0  0  0  0  0  0  0  0  0  0  0  0
   -1.6543   -0.8301    1.9432 C   0  0  2  0  0  0  0  0  0  0  0  0
   -2.3733    0.0138    1.9685 H   0  0  0  0  0  0  0  0  0  0  0  0
   -2.3169   -2.1847    2.2723 C   0  0  0  0  0  0  0  0  0  0  0  0
   -3.3960   -2.0941    2.5118 H   0  0  0  0  0  0  0  0  0  0  0  0
   -1.8171   -2.6076    3.1674 H   0  0  0  0  0  0  0  0  0  0  0  0
   -2.1058   -3.0405    1.0076 C   0  0  2  0  0  0  0  0  0  0  0  0
   -1.9351   -4.1168    1.2426 H   0  0  0  0  0  0  0  0  0  0  0  0
   -0.8757   -2.3987    0.3727 C   0  0  0  0  0  0  0  0  0  0  0  0
   -0.7595   -2.6472   -0.6983 H   0  0  0  0  0  0  0  0  0  0  0  0
    0.0552   -2.6677    0.9042 H   0  0  0  0  0  0  0  0  0  0  0  0
   -1.1243   -0.9469    0.5507 N   0  0  0  0  0  0  0  0  0  0  0  0
   -1.8966   -0.7170   -0.0921 H   0  0  0  0  0  0  0  0  0  0  0  0
    0.4280    0.2721    2.3710 O   0  5  0  0  0  0  0  0  0  0  0  0
   -0.5653   -0.8094    4.0951 O   0  0  0  0  0  0  0  0  0  0  0  0
   -3.1729   -2.8841    0.0650 O   0  0  0  0  0  0  0  0  0  0  0  0
   -3.9992   -3.1060    0.5308 H   0  0  0  0  0  0  0  0  0  0  0  0
  1 15  2  0  0  0  0
  2  3  1  1  0  0  0
  2  4  1  0  0  0  0
  2  1  1  0  0  0  0
  4  5  1  0  0  0  0
  4  6  1  0  0  0  0
  7  8  1  1  0  0  0
  7  4  1  0  0  0  0
  9 12  1  0  0  0  0
  9 11  1  0  0  0  0
  9  7  1  0  0  0  0
 10  9  1  0  0  0  0
 12  2  1  0  0  0  0
 13 12  1  0  0  0  0
 14  1  1  0  0  0  0
 16 17  1  0  0  0  0
 16  7  1  0  0  0  0
M  CHG  1  14  -1
M  END
