1,4
 OpenBabel05122313063D

 22 22  0  0  0  0  0  0  0  0999 V2000
   -2.7293    1.7211   -0.1522 O   0  0  0  0  0  1  0  0  0  0  0  0
   -1.9549    2.8067   -0.2621 N   0  0  0  0  0  0  0  0  0  0  0  0
   -0.6757    2.7592   -0.3465 N   0  0  0  0  0  2  0  0  0  0  0  0
   -0.1807    1.5395   -0.3103 N   0  0  0  0  0  2  0  0  0  0  0  0
    1.2289    1.4625   -0.4512 C   0  0  0  0  0  0  0  0  0  0  0  0
    2.1048    2.1688    0.4168 C   0  0  0  0  0  0  0  0  0  0  0  0
    3.4897    2.0239    0.2026 C   0  0  0  0  0  0  0  0  0  0  0  0
    4.0015    1.2129   -0.8202 C   0  0  0  0  0  0  0  0  0  0  0  0
    3.1222    0.5140   -1.6609 C   0  0  0  0  0  0  0  0  0  0  0  0
    1.7426    0.6387   -1.4721 C   0  0  0  0  0  0  0  0  0  0  0  0
    1.5893    3.0380    1.5336 C   0  0  0  0  0  0  0  0  0  0  0  0
   -2.6526    4.0749   -0.3343 C   0  0  0  0  0  0  0  0  0  0  0  0
    4.1824    2.5610    0.8702 H   0  0  0  0  0  0  0  0  0  0  0  0
    5.0898    1.1185   -0.9529 H   0  0  0  0  0  0  0  0  0  0  0  0
    3.5088   -0.1360   -2.4592 H   0  0  0  0  0  0  0  0  0  0  0  0
    1.0293    0.1037   -2.1149 H   0  0  0  0  0  0  0  0  0  0  0  0
    2.3914    3.2536    2.2658 H   0  0  0  0  0  0  0  0  0  0  0  0
    0.7461    2.5551    2.0679 H   0  0  0  0  0  0  0  0  0  0  0  0
    1.2016    4.0044    1.1514 H   0  0  0  0  0  0  0  0  0  0  0  0
   -3.3362    4.0637   -1.2070 H   0  0  0  0  0  0  0  0  0  0  0  0
   -1.9068    4.8809   -0.4369 H   0  0  0  0  0  0  0  0  0  0  0  0
   -3.2538    4.2150    0.5863 H   0  0  0  0  0  0  0  0  0  0  0  0
  2  1  1  0  0  0  0
  3  4  1  0  0  0  0
  3  2  1  0  0  0  0
  5  4  1  0  0  0  0
  5  6  1  0  0  0  0
  6 11  1  0  0  0  0
  7  6  2  0  0  0  0
  7 13  1  0  0  0  0
  8  7  1  0  0  0  0
  9 10  1  0  0  0  0
  9  8  2  0  0  0  0
 10  5  2  0  0  0  0
 11 18  1  0  0  0  0
 11 17  1  0  0  0  0
 12  2  1  0  0  0  0
 12 22  1  0  0  0  0
 14  8  1  0  0  0  0
 15  9  1  0  0  0  0
 16 10  1  0  0  0  0
 19 11  1  0  0  0  0
 20 12  1  0  0  0  0
 21 12  1  0  0  0  0
M  END
