1,2
 OpenBabel05122313063D

 33 35  0  0  1  0  0  0  0  0999 V2000
   -0.5340   -1.7297    0.6652 N   0  0  0  0  0  2  0  0  0  0  0  0
   -1.7467    0.4955   -0.3688 O   0  0  0  0  0  1  0  0  0  0  0  0
    2.3795   -3.9989    0.4618 O   0  0  0  0  0  0  0  0  0  0  0  0
    0.4040   -4.3505   -0.6005 O   0  0  0  0  0  0  0  0  0  0  0  0
   -4.2056   -2.0972    0.5016 C   0  0  0  0  0  0  0  0  0  0  0  0
   -2.9575   -1.4721    0.3365 C   0  0  0  0  0  0  0  0  0  0  0  0
   -2.8856   -0.1129   -0.1578 C   0  0  2  0  0  3  0  0  0  0  0  0
   -4.0929    0.5648   -0.4232 C   0  0  0  0  0  0  0  0  0  0  0  0
   -6.5801    0.6175   -0.5299 C   0  0  0  0  0  0  0  0  0  0  0  0
   -7.7975   -0.0188   -0.3594 C   0  0  0  0  0  0  0  0  0  0  0  0
   -7.8597   -1.3691    0.0972 C   0  0  0  0  0  0  0  0  0  0  0  0
   -6.6919   -2.0564    0.3765 C   0  0  0  0  0  0  0  0  0  0  0  0
   -5.4158   -1.4328    0.2130 C   0  0  0  0  0  0  0  0  0  0  0  0
   -5.3489   -0.0594   -0.2547 C   0  0  0  0  0  0  0  0  0  0  0  0
   -1.7655   -2.1804    0.6987 C   0  0  0  0  0  0  0  0  0  0  0  0
    0.4911   -2.6689    1.1267 C   0  0  0  0  0  0  0  0  0  0  0  0
    1.2139   -3.3431   -0.0315 C   0  0  0  0  0  0  0  0  0  0  0  0
    2.5341   -5.2086   -0.2794 C   0  0  0  0  0  0  0  0  0  0  0  0
    1.3358   -5.1992   -1.2537 C   0  0  0  0  0  0  0  0  0  0  0  0
   -4.2385   -3.1339    0.8751 H   0  0  0  0  0  0  0  0  0  0  0  0
   -4.0324    1.6100   -0.7630 H   0  0  0  0  0  0  0  0  0  0  0  0
   -6.5386    1.6591   -0.8844 H   0  0  0  0  0  0  0  0  0  0  0  0
   -8.7317    0.5208   -0.5791 H   0  0  0  0  0  0  0  0  0  0  0  0
   -8.8369   -1.8581    0.2257 H   0  0  0  0  0  0  0  0  0  0  0  0
   -6.7261   -3.0987    0.7313 H   0  0  0  0  0  0  0  0  0  0  0  0
   -1.9136   -3.2152    1.0645 H   0  0  0  0  0  0  0  0  0  0  0  0
    1.2474   -2.1248    1.7157 H   0  0  0  0  0  0  0  0  0  0  0  0
    0.0362   -3.4667    1.7483 H   0  0  0  0  0  0  0  0  0  0  0  0
    1.4985   -2.5863   -0.8043 H   0  0  0  0  0  0  0  0  0  0  0  0
    3.5102   -5.2233   -0.8125 H   0  0  0  0  0  0  0  0  0  0  0  0
    2.5012   -6.0741    0.4189 H   0  0  0  0  0  0  0  0  0  0  0  0
    0.8703   -6.1913   -1.4106 H   0  0  0  0  0  0  0  0  0  0  0  0
    1.6317   -4.7781   -2.2448 H   0  0  0  0  0  0  0  0  0  0  0  0
  1 15  1  0  0  0  0
  1 16  1  0  0  0  0
  4 17  1  0  0  0  0
  5 20  1  0  0  0  0
  6  5  1  0  0  0  0
  6 15  2  0  0  0  0
  7  2  1  6  0  0  0
  7  6  1  0  0  0  0
  8 14  2  0  0  0  0
  8  7  1  0  0  0  0
  9 10  2  0  0  0  0
  9 14  1  0  0  0  0
 10 11  1  0  0  0  0
 11 24  1  0  0  0  0
 11 12  2  0  0  0  0
 12 25  1  0  0  0  0
 13 12  1  0  0  0  0
 13  5  2  0  0  0  0
 14 13  1  0  0  0  0
 15 26  1  0  0  0  0
 16 27  1  0  0  0  0
 16 28  1  0  0  0  0
 17  3  1  0  0  0  0
 17 16  1  0  0  0  0
 18 31  1  0  0  0  0
 18  3  1  0  0  0  0
 19  4  1  0  0  0  0
 19 18  1  0  0  0  0
 21  8  1  0  0  0  0
 22  9  1  0  0  0  0
 23 10  1  0  0  0  0
 29 17  1  0  0  0  0
 30 18  1  0  0  0  0
 32 19  1  0  0  0  0
 33 19  1  0  0  0  0
M  END
