1,2
 OpenBabel05122313063D

 27 28  0  0  0  0  0  0  0  0999 V2000
   -1.4836    1.0648    0.3181 O   0  5  0  0  0  0  0  0  0  0  0  0
    1.0380    1.4839   -0.6621 N   0  0  0  0  0  2  0  0  0  0  0  0
   -1.6663    2.3476    0.1706 C   0  0  0  0  0  0  0  0  0  0  0  0
    0.6419    2.7372   -0.6679 C   0  0  0  0  0  0  0  0  0  0  0  0
    2.3991    1.2528   -1.1504 C   0  0  0  0  0  0  0  0  0  0  0  0
   -0.6383    3.2417   -0.2823 C   0  0  0  0  0  0  0  0  0  0  0  0
   -2.9519    2.8943    0.4692 C   0  0  0  0  0  0  0  0  0  0  0  0
    1.3693    3.4912   -1.0277 H   0  0  0  0  0  0  0  0  0  0  0  0
    3.4051    1.1222   -0.0151 C   0  0  0  0  0  0  0  0  0  0  0  0
    2.7293    2.0931   -1.7948 H   0  0  0  0  0  0  0  0  0  0  0  0
    2.4290    0.3144   -1.7279 H   0  0  0  0  0  0  0  0  0  0  0  0
   -0.9114    4.6344   -0.3877 C   0  0  0  0  0  3  0  0  0  0  0  0
   -3.1840    4.2605    0.3529 C   0  0  0  0  0  0  0  0  0  0  0  0
   -3.7413    2.1943    0.7820 H   0  0  0  0  0  0  0  0  0  0  0  0
    3.7159    2.3926    0.5187 O   0  0  0  0  0  0  0  0  0  0  0  0
    4.6277    0.5939   -0.5266 O   0  0  0  0  0  0  0  0  0  0  0  0
    3.0037    0.4499    0.7835 H   0  0  0  0  0  0  0  0  0  0  0  0
   -2.1624    5.1484   -0.0703 C   0  0  0  0  0  0  0  0  0  0  0  0
   -0.1051    5.3015   -0.7331 H   0  0  0  0  0  0  0  0  0  0  0  0
   -4.1832    4.6574    0.5925 H   0  0  0  0  0  0  0  0  0  0  0  0
    4.9762    2.1958    1.1408 C   0  0  0  0  0  0  0  0  0  0  0  0
    5.6955    1.2423    0.1626 C   0  0  0  0  0  0  0  0  0  0  0  0
   -2.3623    6.2262   -0.1540 H   0  0  0  0  0  0  0  0  0  0  0  0
    4.8562    1.7205    2.1443 H   0  0  0  0  0  0  0  0  0  0  0  0
    5.4729    3.1772    1.2664 H   0  0  0  0  0  0  0  0  0  0  0  0
    6.3275    1.7922   -0.5700 H   0  0  0  0  0  0  0  0  0  0  0  0
    6.3339    0.4997    0.6899 H   0  0  0  0  0  0  0  0  0  0  0  0
  3  1  1  0  0  0  0
  3  7  2  0  0  0  0
  4  2  1  0  0  0  0
  4  6  2  0  0  0  0
  5  2  1  0  0  0  0
  5  9  1  0  0  0  0
  6  3  1  0  0  0  0
  7 14  1  0  0  0  0
  8  4  1  0  0  0  0
  9 15  1  0  0  0  0
  9 17  1  0  0  0  0
 10  5  1  0  0  0  0
 11  5  1  0  0  0  0
 12  6  1  0  0  0  0
 12 18  1  0  0  0  0
 13  7  1  0  0  0  0
 13 20  1  0  0  0  0
 15 21  1  0  0  0  0
 16  9  1  0  0  0  0
 16 22  1  0  0  0  0
 18 13  2  0  0  0  0
 19 12  1  0  0  0  0
 21 25  1  0  0  0  0
 21 24  1  0  0  0  0
 22 27  1  0  0  0  0
 22 21  1  0  0  0  0
 23 18  1  0  0  0  0
 26 22  1  0  0  0  0
M  CHG  1   1  -1
M  END
