1,12
 OpenBabel05122313063D

 37 38  0  0  1  0  0  0  0  0999 V2000
   -1.4416   -0.8596   -1.1649 O   0  5  0  0  0  0  0  0  0  0  0  0
   -3.1408   -2.4367   -1.5624 C   0  0  0  0  0  0  0  0  0  0  0  0
   -3.5672   -1.7249   -2.2848 H   0  0  0  0  0  0  0  0  0  0  0  0
   -3.7422   -3.6647   -1.3153 C   0  0  0  0  0  0  0  0  0  0  0  0
   -4.6687   -3.9293   -1.8493 H   0  0  0  0  0  0  0  0  0  0  0  0
   -1.9419   -2.0300   -0.8927 C   0  0  0  0  0  0  0  0  0  0  0  0
   -1.3680   -2.9717    0.0538 C   0  0  0  0  0  0  0  0  0  0  0  0
   -0.1434   -2.7470    0.7788 C   0  0  0  0  0  3  0  0  0  0  0  0
    0.2250   -3.6250    1.3568 H   0  0  0  0  0  0  0  0  0  0  0  0
   -3.1793   -4.5808   -0.3929 C   0  0  0  0  0  0  0  0  0  0  0  0
   -3.6568   -5.5533   -0.2069 H   0  0  0  0  0  0  0  0  0  0  0  0
    0.5799   -1.6599    0.8286 N   0  0  0  0  0  2  0  0  0  0  0  0
    3.0136   -1.3887    0.5826 C   0  0  0  0  0  0  0  0  0  0  0  0
    2.8528   -0.3602    0.1915 H   0  0  0  0  0  0  0  0  0  0  0  0
    2.9916   -2.3336   -0.6311 C   0  0  0  0  0  0  0  0  0  0  0  0
    3.0917   -3.3860   -0.2749 H   0  0  0  0  0  0  0  0  0  0  0  0
    2.0120   -2.2653   -1.1451 H   0  0  0  0  0  0  0  0  0  0  0  0
    5.4911   -2.0297   -0.9468 C   0  0  0  0  0  0  0  0  0  0  0  0
    5.7238   -3.0679   -0.6170 H   0  0  0  0  0  0  0  0  0  0  0  0
    6.2856   -1.7467   -1.6692 H   0  0  0  0  0  0  0  0  0  0  0  0
    1.8498   -1.6757    1.5636 C   0  0  1  0  0  0  0  0  0  0  0  0
    1.9971   -2.7000    1.9864 H   0  0  0  0  0  0  0  0  0  0  0  0
    5.5174   -1.0980    0.2701 C   0  0  0  0  0  0  0  0  0  0  0  0
    6.5021   -1.1474    0.7806 H   0  0  0  0  0  0  0  0  0  0  0  0
    5.3926   -0.0463   -0.0730 H   0  0  0  0  0  0  0  0  0  0  0  0
    1.7746   -0.6699    2.7171 C   0  0  0  0  0  0  0  0  0  0  0  0
    1.6605    0.3634    2.3283 H   0  0  0  0  0  0  0  0  0  0  0  0
    2.6899   -0.7040    3.3375 H   0  0  0  0  0  0  0  0  0  0  0  0
    0.9085   -0.8897    3.3711 H   0  0  0  0  0  0  0  0  0  0  0  0
    4.1156   -2.0112   -1.6224 C   0  0  0  0  0  0  0  0  0  0  0  0
    3.9241   -1.0012   -2.0482 H   0  0  0  0  0  0  0  0  0  0  0  0
    4.0884   -2.7213   -2.4752 H   0  0  0  0  0  0  0  0  0  0  0  0
    4.3927   -1.4264    1.2626 C   0  0  0  0  0  0  0  0  0  0  0  0
    4.4314   -0.7133    2.1113 H   0  0  0  0  0  0  0  0  0  0  0  0
    4.5598   -2.4411    1.6934 H   0  0  0  0  0  0  0  0  0  0  0  0
   -2.0087   -4.2282    0.2644 C   0  0  0  0  0  0  0  0  0  0  0  0
   -1.5460   -4.9294    0.9786 H   0  0  0  0  0  0  0  0  0  0  0  0
  1  6  1  0  0  0  0
  2  4  2  0  0  0  0
  2  6  1  0  0  0  0
  3  2  1  0  0  0  0
  4 10  1  0  0  0  0
  5  4  1  0  0  0  0
  6  7  2  0  0  0  0
  7 36  1  0  0  0  0
  7  8  1  0  0  0  0
  8 12  1  0  0  0  0
  8  9  1  0  0  0  0
 10 11  1  0  0  0  0
 10 36  2  0  0  0  0
 12 21  1  0  0  0  0
 13 33  1  0  0  0  0
 13 21  1  0  0  0  0
 14 13  1  0  0  0  0
 15 16  1  0  0  0  0
 15 13  1  0  0  0  0
 17 15  1  0  0  0  0
 18 19  1  0  0  0  0
 18 23  1  0  0  0  0
 20 18  1  0  0  0  0
 21 22  1  1  0  0  0
 21 26  1  0  0  0  0
 23 24  1  0  0  0  0
 23 33  1  0  0  0  0
 25 23  1  0  0  0  0
 26 28  1  0  0  0  0
 26 29  1  0  0  0  0
 27 26  1  0  0  0  0
 30 18  1  0  0  0  0
 30 15  1  0  0  0  0
 31 30  1  0  0  0  0
 32 30  1  0  0  0  0
 33 35  1  0  0  0  0
 33 34  1  0  0  0  0
 36 37  1  0  0  0  0
M  CHG  1   1  -1
M  END
