1,26
 OpenBabel05122313063D

 55 56  0  0  0  0  0  0  0  0999 V2000
   -1.6150   -0.3595   -0.2283 O   0  5  0  0  0  0  0  0  0  0  0  0
   -1.9773   -1.0210    0.8520 C   0  0  0  0  0  0  0  0  0  0  0  0
   -0.9546   -1.4336    1.7661 C   0  0  0  0  0  0  0  0  0  0  0  0
   -1.3076   -2.1266    2.9531 C   0  0  0  0  0  0  0  0  0  0  0  0
   -0.5104   -2.4423    3.6446 H   0  0  0  0  0  0  0  0  0  0  0  0
   -2.6413   -2.4009    3.2253 C   0  0  0  0  0  0  0  0  0  0  0  0
   -2.9275   -2.9333    4.1437 H   0  0  0  0  0  0  0  0  0  0  0  0
   -3.6358   -2.0055    2.3044 C   0  0  0  0  0  0  0  0  0  0  0  0
   -4.6803   -2.2501    2.5394 H   0  0  0  0  0  0  0  0  0  0  0  0
   -3.3525   -1.3257    1.1086 C   0  0  0  0  0  0  0  0  0  0  0  0
   -4.4506   -0.9427    0.0995 C   0  0  0  0  0  0  0  0  0  0  0  0
   -4.1811   -1.6606   -1.2454 C   0  0  0  0  0  0  0  0  0  0  0  0
   -3.2039   -1.3782   -1.6774 H   0  0  0  0  0  0  0  0  0  0  0  0
   -4.9685   -1.3926   -1.9793 H   0  0  0  0  0  0  0  0  0  0  0  0
   -4.1986   -2.7612   -1.1116 H   0  0  0  0  0  0  0  0  0  0  0  0
   -4.4752    0.5895   -0.1170 C   0  0  0  0  0  0  0  0  0  0  0  0
   -4.6405    1.1206    0.8436 H   0  0  0  0  0  0  0  0  0  0  0  0
   -5.3095    0.8575   -0.7969 H   0  0  0  0  0  0  0  0  0  0  0  0
   -3.5413    0.9570   -0.5796 H   0  0  0  0  0  0  0  0  0  0  0  0
   -5.8449   -1.3688    0.5947 C   0  0  0  0  0  0  0  0  0  0  0  0
   -6.1217   -0.8704    1.5464 H   0  0  0  0  0  0  0  0  0  0  0  0
   -5.9196   -2.4655    0.7406 H   0  0  0  0  0  0  0  0  0  0  0  0
   -6.6033   -1.0845   -0.1614 H   0  0  0  0  0  0  0  0  0  0  0  0
    0.4478   -1.2066    1.5094 C   0  0  0  0  0  3  0  0  0  0  0  0
    1.1227   -1.6495    2.2721 H   0  0  0  0  0  0  0  0  0  0  0  0
    1.0203   -0.5784    0.5095 N   0  0  0  0  0  2  0  0  0  0  0  0
    2.4687   -0.6333    0.5370 C   0  0  0  0  0  0  0  0  0  0  0  0
    3.1237   -1.7757    0.0117 C   0  0  0  0  0  0  0  0  0  0  0  0
    2.3583   -2.9680   -0.5507 C   0  0  0  0  0  0  0  0  0  0  0  0
    1.3135   -2.6466   -0.7255 H   0  0  0  0  0  0  0  0  0  0  0  0
    2.3303   -4.1271    0.4624 C   0  0  0  0  0  0  0  0  0  0  0  0
    1.7532   -4.9850    0.0604 H   0  0  0  0  0  0  0  0  0  0  0  0
    1.8644   -3.8251    1.4225 H   0  0  0  0  0  0  0  0  0  0  0  0
    3.3566   -4.4831    0.6908 H   0  0  0  0  0  0  0  0  0  0  0  0
    2.9056   -3.4292   -1.9097 C   0  0  0  0  0  0  0  0  0  0  0  0
    2.2548   -4.2203   -2.3336 H   0  0  0  0  0  0  0  0  0  0  0  0
    3.9287   -3.8506   -1.8262 H   0  0  0  0  0  0  0  0  0  0  0  0
    2.9313   -2.5905   -2.6320 H   0  0  0  0  0  0  0  0  0  0  0  0
    4.5319   -1.8041    0.0570 C   0  0  0  0  0  0  0  0  0  0  0  0
    5.0604   -2.6802   -0.3475 H   0  0  0  0  0  0  0  0  0  0  0  0
    5.2650   -0.7472    0.6038 C   0  0  0  0  0  0  0  0  0  0  0  0
    6.3644   -0.7906    0.6264 H   0  0  0  0  0  0  0  0  0  0  0  0
    4.5954    0.3680    1.1229 C   0  0  0  0  0  0  0  0  0  0  0  0
    5.1758    1.1962    1.5549 H   0  0  0  0  0  0  0  0  0  0  0  0
    3.1929    0.4498    1.0991 C   0  0  0  0  0  0  0  0  0  0  0  0
    2.4680    1.6433    1.7059 C   0  0  0  0  0  0  0  0  0  0  0  0
    1.4858    1.7011    1.1995 H   0  0  0  0  0  0  0  0  0  0  0  0
    3.1813    2.9786    1.4559 C   0  0  0  0  0  0  0  0  0  0  0  0
    2.5555    3.8228    1.8130 H   0  0  0  0  0  0  0  0  0  0  0  0
    3.3789    3.1227    0.3757 H   0  0  0  0  0  0  0  0  0  0  0  0
    4.1467    3.0468    1.9983 H   0  0  0  0  0  0  0  0  0  0  0  0
    2.2127    1.4235    3.2086 C   0  0  0  0  0  0  0  0  0  0  0  0
    1.6515    2.2756    3.6472 H   0  0  0  0  0  0  0  0  0  0  0  0
    3.1701    1.3286    3.7616 H   0  0  0  0  0  0  0  0  0  0  0  0
    1.6296    0.5000    3.3993 H   0  0  0  0  0  0  0  0  0  0  0  0
  1  2  1  0  0  0  0
  2 10  2  0  0  0  0
  2  3  1  0  0  0  0
  3  4  2  0  0  0  0
  4  6  1  0  0  0  0
  4  5  1  0  0  0  0
  6  7  1  0  0  0  0
  8  9  1  0  0  0  0
  8  6  2  0  0  0  0
 10  8  1  0  0  0  0
 11 20  1  0  0  0  0
 11 10  1  0  0  0  0
 12 15  1  0  0  0  0
 12 11  1  0  0  0  0
 13 12  1  0  0  0  0
 14 12  1  0  0  0  0
 16 11  1  0  0  0  0
 16 17  1  0  0  0  0
 18 16  1  0  0  0  0
 19 16  1  0  0  0  0
 20 22  1  0  0  0  0
 20 21  1  0  0  0  0
 23 20  1  0  0  0  0
 24  3  1  0  0  0  0
 24 25  1  0  0  0  0
 26 27  1  0  0  0  0
 26 24  1  0  0  0  0
 27 45  1  0  0  0  0
 28 39  1  0  0  0  0
 28 27  2  0  0  0  0
 29 28  1  0  0  0  0
 29 31  1  0  0  0  0
 30 29  1  0  0  0  0
 31 34  1  0  0  0  0
 31 33  1  0  0  0  0
 32 31  1  0  0  0  0
 35 37  1  0  0  0  0
 35 29  1  0  0  0  0
 36 35  1  0  0  0  0
 38 35  1  0  0  0  0
 39 41  2  0  0  0  0
 40 39  1  0  0  0  0
 41 42  1  0  0  0  0
 41 43  1  0  0  0  0
 43 44  1  0  0  0  0
 45 43  2  0  0  0  0
 45 46  1  0  0  0  0
 46 52  1  0  0  0  0
 47 46  1  0  0  0  0
 48 46  1  0  0  0  0
 48 49  1  0  0  0  0
 48 51  1  0  0  0  0
 50 48  1  0  0  0  0
 52 55  1  0  0  0  0
 52 53  1  0  0  0  0
 52 54  1  0  0  0  0
M  CHG  1   1  -1
M  END
