1,2
 OpenBabel05122313063D

 16 16  0  0  0  0  0  0  0  0999 V2000
    3.8001   -0.0759    0.1583 N   0  0  0  0  0  2  0  0  0  0  0  0
    3.0205    1.0401   -2.1580 O   0  5  0  0  0  0  0  0  0  0  0  0
    4.7556    0.2846   -0.7309 C   0  0  0  0  0  0  0  0  0  0  0  0
    6.1239    0.0999   -0.4849 C   0  0  0  0  0  0  0  0  0  0  0  0
    6.8702    0.4067   -1.2326 H   0  0  0  0  0  0  0  0  0  0  0  0
    6.4945   -0.4835    0.7361 C   0  0  0  0  0  0  0  0  0  0  0  0
    7.5548   -0.6511    0.9764 H   0  0  0  0  0  0  0  0  0  0  0  0
    5.4969   -0.8494    1.6484 C   0  0  0  0  0  0  0  0  0  0  0  0
    5.7604   -1.3065    2.6131 H   0  0  0  0  0  0  0  0  0  0  0  0
    4.1318   -0.6344    1.3402 C   0  0  0  0  0  0  0  0  0  0  0  0
    4.2314    0.8986   -1.9683 C   0  0  0  0  0  0  0  0  0  0  0  0
    4.9715    1.2424   -2.7339 H   0  0  0  0  0  0  0  0  0  0  0  0
    3.0114   -0.9914    2.2607 C   0  0  0  0  0  0  0  0  0  0  0  0
    2.4043   -0.0856    2.4762 H   0  0  0  0  0  0  0  0  0  0  0  0
    3.3731   -1.4380    3.2038 H   0  0  0  0  0  0  0  0  0  0  0  0
    2.3172   -1.6949    1.7500 H   0  0  0  0  0  0  0  0  0  0  0  0
  1 10  1  0  0  0  0
  2 11  1  0  0  0  0
  3  4  1  0  0  0  0
  3  1  1  0  0  0  0
  4  6  2  0  0  0  0
  5  4  1  0  0  0  0
  6  7  1  0  0  0  0
  6  8  1  0  0  0  0
  8  9  1  0  0  0  0
 10  8  2  0  0  0  0
 10 13  1  0  0  0  0
 11  3  2  0  0  0  0
 12 11  1  0  0  0  0
 13 14  1  0  0  0  0
 13 15  1  0  0  0  0
 16 13  1  0  0  0  0
M  CHG  1   2  -1
M  END
