1,2
 OpenBabel05122313063D

 26 28  0  0  0  0  0  0  0  0999 V2000
   -0.4360   -1.4245   -0.2634 O   0  5  0  0  0  0  0  0  0  0  0  0
   -0.5150    1.4510   -0.3159 N   0  0  0  0  0  2  0  0  0  0  0  0
   -2.4625   -0.0737   -0.0418 C   0  0  0  0  0  0  0  0  0  0  0  0
   -2.6953    2.3927    0.0929 C   0  0  0  0  0  0  0  0  0  0  0  0
   -2.2516    3.3933    0.1272 H   0  0  0  0  0  0  0  0  0  0  0  0
   -2.4383   -2.5602   -0.2265 C   0  0  0  0  0  0  0  0  0  0  0  0
   -1.8254   -3.4627   -0.3575 H   0  0  0  0  0  0  0  0  0  0  0  0
   -4.5710   -1.4331    0.0973 C   0  0  0  0  0  0  0  0  0  0  0  0
   -1.7380   -1.3071   -0.1831 C   0  0  0  0  0  0  0  0  0  0  0  0
   -4.7032    1.0096    0.2740 C   0  0  0  0  0  0  0  0  0  0  0  0
   -3.8967   -0.1646    0.1114 C   0  0  0  0  0  0  0  0  0  0  0  0
   -5.9776   -1.4947    0.2506 C   0  0  0  0  0  0  0  0  0  0  0  0
   -6.4639   -2.4821    0.2310 H   0  0  0  0  0  0  0  0  0  0  0  0
   -6.1032    0.9076    0.4324 C   0  0  0  0  0  0  0  0  0  0  0  0
   -6.6879    1.8312    0.5621 H   0  0  0  0  0  0  0  0  0  0  0  0
   -4.0490    2.2798    0.2758 C   0  0  0  0  0  0  0  0  0  0  0  0
   -4.6526    3.1867    0.4356 H   0  0  0  0  0  0  0  0  0  0  0  0
   -3.8013   -2.6237   -0.0851 C   0  0  0  0  0  3  0  0  0  0  0  0
   -4.3175   -3.5957   -0.1056 H   0  0  0  0  0  0  0  0  0  0  0  0
   -6.7428   -0.3378    0.4215 C   0  0  0  0  0  0  0  0  0  0  0  0
   -7.8334   -0.4045    0.5424 H   0  0  0  0  0  0  0  0  0  0  0  0
   -0.0607    2.8100   -0.5967 C   0  0  0  0  0  0  0  0  0  0  0  0
    0.0769    3.4203    0.3255 H   0  0  0  0  0  0  0  0  0  0  0  0
   -0.7699    3.3473   -1.2569 H   0  0  0  0  0  0  0  0  0  0  0  0
    0.8960    2.7813   -1.1479 H   0  0  0  0  0  0  0  0  0  0  0  0
   -1.8343    1.2432   -0.0934 C   0  0  0  0  0  0  0  0  0  0  0  0
  1  9  1  0  0  0  0
  2 26  1  0  0  0  0
  3 11  1  0  0  0  0
  4  5  1  0  0  0  0
  4 16  2  0  0  0  0
  6  9  2  0  0  0  0
  6 18  1  0  0  0  0
  7  6  1  0  0  0  0
  8 11  2  0  0  0  0
  8 12  1  0  0  0  0
  9  3  1  0  0  0  0
 10 16  1  0  0  0  0
 10 14  2  0  0  0  0
 11 10  1  0  0  0  0
 12 20  2  0  0  0  0
 13 12  1  0  0  0  0
 14 15  1  0  0  0  0
 16 17  1  0  0  0  0
 18  8  1  0  0  0  0
 19 18  1  0  0  0  0
 20 14  1  0  0  0  0
 20 21  1  0  0  0  0
 22  2  1  0  0  0  0
 22 23  1  0  0  0  0
 24 22  1  0  0  0  0
 25 22  1  0  0  0  0
 26  3  2  0  0  0  0
 26  4  1  0  0  0  0
M  CHG  1   1  -1
M  END
