1,3
 OpenBabel05122313063D

 32 33  0  0  0  0  0  0  0  0999 V2000
    1.6614    0.5548    0.6765 O   0  5  0  0  0  0  0  0  0  0  0  0
    4.1837    0.6344    1.8041 O   0  0  0  0  0  0  0  0  0  0  0  0
   -0.0169    1.4300   -1.2729 N   0  0  0  0  0  2  0  0  0  0  0  0
   -1.4487    3.4223    0.3516 C   0  0  0  0  0  0  0  0  0  0  0  0
   -0.3780    3.6504    0.2317 H   0  0  0  0  0  0  0  0  0  0  0  0
   -2.1642    3.9899    1.4157 C   0  0  0  0  0  0  0  0  0  0  0  0
   -1.6547    4.6696    2.1159 H   0  0  0  0  0  0  0  0  0  0  0  0
   -3.5247    3.6877    1.5913 C   0  0  0  0  0  0  0  0  0  0  0  0
   -4.0850    4.1283    2.4301 H   0  0  0  0  0  0  0  0  0  0  0  0
   -4.1617    2.8133    0.6974 C   0  0  0  0  0  0  0  0  0  0  0  0
   -5.2239    2.5592    0.8349 H   0  0  0  0  0  0  0  0  0  0  0  0
   -3.4455    2.2433   -0.3662 C   0  0  0  0  0  0  0  0  0  0  0  0
   -3.9354    1.5334   -1.0500 H   0  0  0  0  0  0  0  0  0  0  0  0
   -2.0838    2.5468   -0.5512 C   0  0  0  0  0  0  0  0  0  0  0  0
   -1.3184    1.9414   -1.7151 C   0  0  0  0  0  0  0  0  0  0  0  0
   -1.1553    2.7059   -2.5078 H   0  0  0  0  0  0  0  0  0  0  0  0
   -1.9117    1.1131   -2.1395 H   0  0  0  0  0  0  0  0  0  0  0  0
    1.0555    2.0477   -1.7041 C   0  0  0  0  0  0  0  0  0  0  0  0
    0.9156    2.8131   -2.4946 H   0  0  0  0  0  0  0  0  0  0  0  0
    2.3916    1.8872   -1.2081 C   0  0  0  0  0  0  0  0  0  0  0  0
    3.4776    2.5184   -1.8749 C   0  0  0  0  0  3  0  0  0  0  0  0
    3.2818    3.0379   -2.8261 H   0  0  0  0  0  0  0  0  0  0  0  0
    4.7592    2.4837   -1.3396 C   0  0  0  0  0  0  0  0  0  0  0  0
    5.6009    2.9566   -1.8654 H   0  0  0  0  0  0  0  0  0  0  0  0
    4.9670    1.8587   -0.0877 C   0  0  0  0  0  0  0  0  0  0  0  0
    5.9623    1.8374    0.3811 H   0  0  0  0  0  0  0  0  0  0  0  0
    3.9203    1.2506    0.6030 C   0  0  0  0  0  0  0  0  0  0  0  0
    2.5989    1.1921    0.0321 C   0  0  0  0  0  0  0  0  0  0  0  0
    3.5092    1.1862    2.9346 C   0  0  0  0  0  0  0  0  0  0  0  0
    2.4063    1.1575    2.8078 H   0  0  0  0  0  0  0  0  0  0  0  0
    3.7975    0.5700    3.8075 H   0  0  0  0  0  0  0  0  0  0  0  0
    3.8295    2.2373    3.1121 H   0  0  0  0  0  0  0  0  0  0  0  0
  2 29  1  0  0  0  0
  4  6  1  0  0  0  0
  5  4  1  0  0  0  0
  6  8  2  0  0  0  0
  6  7  1  0  0  0  0
  8  9  1  0  0  0  0
 10 11  1  0  0  0  0
 10  8  1  0  0  0  0
 12 10  2  0  0  0  0
 13 12  1  0  0  0  0
 14 12  1  0  0  0  0
 14  4  2  0  0  0  0
 15  3  1  0  0  0  0
 15 14  1  0  0  0  0
 16 15  1  0  0  0  0
 17 15  1  0  0  0  0
 18  3  1  0  0  0  0
 18 20  2  0  0  0  0
 19 18  1  0  0  0  0
 20 28  1  0  0  0  0
 21 23  1  0  0  0  0
 21 20  1  0  0  0  0
 22 21  1  0  0  0  0
 23 25  2  0  0  0  0
 24 23  1  0  0  0  0
 25 26  1  0  0  0  0
 25 27  1  0  0  0  0
 27  2  1  0  0  0  0
 28 27  2  0  0  0  0
 28  1  1  0  0  0  0
 29 32  1  0  0  0  0
 29 31  1  0  0  0  0
 30 29  1  0  0  0  0
M  CHG  1   1  -1
M  END
