1,2
 OpenBabel05122313063D

 24 24  0  0  0  0  0  0  0  0999 V2000
   -0.5525   -1.2937    0.3446 N   0  0  0  0  0  0  0  0  0  0  0  0
   -0.3706    0.0874   -1.8546 O   0  5  0  0  0  0  0  0  0  0  0  0
   -1.8047   -1.1576   -3.0264 O   0  0  0  0  0  0  0  0  0  0  0  0
   -0.3855   -3.9620   -2.0699 O   0  5  0  0  0  0  0  0  0  0  0  0
    1.0093   -3.1245   -0.4665 O   0  0  0  0  0  0  0  0  0  0  0  0
   -1.0960   -1.9839   -0.8550 C   0  0  0  0  0  0  0  0  0  0  0  0
   -1.1402   -0.9891   -2.0194 C   0  0  0  0  0  0  0  0  0  0  0  0
   -0.0576   -3.1701   -1.2036 C   0  0  0  0  0  0  0  0  0  0  0  0
   -2.4881   -2.6016   -0.6081 C   0  0  0  0  0  0  0  0  0  0  0  0
   -3.4917   -1.6032   -0.0852 C   0  0  0  0  0  0  0  0  0  0  0  0
   -4.2474   -0.7957   -0.9648 C   0  0  0  0  0  0  0  0  0  0  0  0
   -5.1640    0.1404   -0.4650 C   0  0  0  0  0  0  0  0  0  0  0  0
   -5.3304    0.3060    0.9209 C   0  0  0  0  0  0  0  0  0  0  0  0
   -4.5779   -0.4782    1.8077 C   0  0  0  0  0  0  0  0  0  0  0  0
   -3.6722   -1.4294    1.3061 C   0  0  0  0  0  0  0  0  0  0  0  0
   -4.1148   -0.9246   -2.0492 H   0  0  0  0  0  0  0  0  0  0  0  0
   -5.7675    0.7369   -1.1666 H   0  0  0  0  0  0  0  0  0  0  0  0
   -6.0632    1.0301    1.3086 H   0  0  0  0  0  0  0  0  0  0  0  0
   -4.7207   -0.3762    2.8945 H   0  0  0  0  0  0  0  0  0  0  0  0
   -3.1409   -2.0951    2.0084 H   0  0  0  0  0  0  0  0  0  0  0  0
   -1.3217   -1.1030    1.0103 H   0  0  0  0  0  0  0  0  0  0  0  0
    0.1271   -2.0085    0.7059 H   0  0  0  0  0  0  0  0  0  0  0  0
   -2.7877   -3.0160   -1.5898 H   0  0  0  0  0  0  0  0  0  0  0  0
   -2.3851   -3.4549    0.0929 H   0  0  0  0  0  0  0  0  0  0  0  0
  1 22  1  0  0  0  0
  1 21  1  0  0  0  0
  3  7  2  0  0  0  0
  4  8  1  0  0  0  0
  6  9  1  0  0  0  0
  6  1  1  0  0  0  0
  7  2  1  0  0  0  0
  7  6  1  0  0  0  0
  8  6  1  0  0  0  0
  8  5  2  0  0  0  0
  9 10  1  0  0  0  0
  9 24  1  0  0  0  0
 10 15  1  0  0  0  0
 11 12  1  0  0  0  0
 11 10  2  0  0  0  0
 12 13  2  0  0  0  0
 13 18  1  0  0  0  0
 13 14  1  0  0  0  0
 14 19  1  0  0  0  0
 15 14  2  0  0  0  0
 15 20  1  0  0  0  0
 16 11  1  0  0  0  0
 17 12  1  0  0  0  0
 23  9  1  0  0  0  0
M  CHG  2   2  -1   4  -1
M  END
