2,4
 OpenBabel05122313063D

 42 43  0  0  1  0  0  0  0  0999 V2000
    4.5178   -1.3905   -1.2163 Br  0  0  0  0  0  0  0  0  0  0  0  0
    0.1048    0.3404    1.8876 N   0  0  0  0  0  2  0  0  0  0  0  0
    0.0468    2.8281   -0.0582 N   0  0  0  0  0  0  0  0  0  0  0  0
    1.8974   -0.3396   -0.0703 O   0  0  0  0  0  1  0  0  0  0  0  0
    2.2319   -0.8387    2.2653 C   0  0  0  0  0  0  0  0  0  0  0  0
    2.6214   -0.8433    0.8764 C   0  0  2  0  0  3  0  0  0  0  0  0
    3.9073   -1.4171    0.5898 C   0  0  0  0  0  0  0  0  0  0  0  0
    4.7107   -1.9836    1.5767 C   0  0  0  0  0  0  0  0  0  0  0  0
    5.6787   -2.4208    1.2915 H   0  0  0  0  0  0  0  0  0  0  0  0
    4.2890   -1.9928    2.9250 C   0  0  0  0  0  0  0  0  0  0  0  0
    4.9298   -2.4428    3.6963 H   0  0  0  0  0  0  0  0  0  0  0  0
    3.0701   -1.4098    3.2573 C   0  0  0  0  0  0  0  0  0  0  0  0
    2.7382   -1.3765    4.3072 H   0  0  0  0  0  0  0  0  0  0  0  0
    1.0445   -0.1352    2.6654 C   0  0  0  0  0  0  0  0  0  0  0  0
    0.9409    0.0503    3.7546 H   0  0  0  0  0  0  0  0  0  0  0  0
   -0.8904    1.2074    2.5272 C   0  0  0  0  0  0  0  0  0  0  0  0
   -0.9251    0.9596    3.6110 H   0  0  0  0  0  0  0  0  0  0  0  0
   -1.8806    0.9882    2.0885 H   0  0  0  0  0  0  0  0  0  0  0  0
   -0.5760    2.7051    2.3806 C   0  0  0  0  0  0  0  0  0  0  0  0
   -1.2355    3.2409    3.0960 H   0  0  0  0  0  0  0  0  0  0  0  0
    0.4641    2.8957    2.7261 H   0  0  0  0  0  0  0  0  0  0  0  0
   -0.8109    3.3370    1.0038 C   0  0  0  0  0  0  0  0  0  0  0  0
   -1.8608    3.1378    0.7035 H   0  0  0  0  0  0  0  0  0  0  0  0
   -0.7335    4.4472    1.1356 H   0  0  0  0  0  0  0  0  0  0  0  0
    1.4921    3.0393    0.0376 C   0  0  0  0  0  0  0  0  0  0  0  0
    1.8758    2.3408    0.8188 H   0  0  0  0  0  0  0  0  0  0  0  0
    1.9465    4.4617    0.4230 C   0  0  0  0  0  0  0  0  0  0  0  0
    1.5053    4.7653    1.3956 H   0  0  0  0  0  0  0  0  0  0  0  0
    1.5579    5.1788   -0.3368 H   0  0  0  0  0  0  0  0  0  0  0  0
    3.4774    4.5544    0.4940 C   0  0  0  0  0  0  0  0  0  0  0  0
    3.7897    5.5855    0.7630 H   0  0  0  0  0  0  0  0  0  0  0  0
    3.8382    3.8959    1.3164 H   0  0  0  0  0  0  0  0  0  0  0  0
    4.1351    4.1159   -0.8209 C   0  0  0  0  0  0  0  0  0  0  0  0
    3.8644    4.8418   -1.6211 H   0  0  0  0  0  0  0  0  0  0  0  0
    5.2414    4.1495   -0.7302 H   0  0  0  0  0  0  0  0  0  0  0  0
    3.6696    2.7141   -1.2337 C   0  0  0  0  0  0  0  0  0  0  0  0
    4.0455    1.9630   -0.5045 H   0  0  0  0  0  0  0  0  0  0  0  0
    4.1051    2.4287   -2.2141 H   0  0  0  0  0  0  0  0  0  0  0  0
    2.1424    2.6224   -1.2886 C   0  0  0  0  0  0  0  0  0  0  0  0
    1.7551    3.2924   -2.0929 H   0  0  0  0  0  0  0  0  0  0  0  0
    1.8215    1.5920   -1.5314 H   0  0  0  0  0  0  0  0  0  0  0  0
   -0.2968    3.1550   -0.9684 H   0  0  0  0  0  0  0  0  0  0  0  0
  1  7  1  0  0  0  0
  2 16  1  0  0  0  0
  2 14  1  0  0  0  0
  3 25  1  0  0  0  0
  3 22  1  0  0  0  0
  5 14  2  0  0  0  0
  5 12  1  0  0  0  0
  6  4  1  1  0  0  0
  6  5  1  0  0  0  0
  7  6  1  0  0  0  0
  7  8  2  0  0  0  0
  8 10  1  0  0  0  0
  9  8  1  0  0  0  0
 10 12  2  0  0  0  0
 10 11  1  0  0  0  0
 12 13  1  0  0  0  0
 14 15  1  0  0  0  0
 16 17  1  0  0  0  0
 18 16  1  0  0  0  0
 19 16  1  0  0  0  0
 19 21  1  0  0  0  0
 19 20  1  0  0  0  0
 22 24  1  0  0  0  0
 22 19  1  0  0  0  0
 23 22  1  0  0  0  0
 25 27  1  0  0  0  0
 25 26  1  0  0  0  0
 27 30  1  0  0  0  0
 27 28  1  0  0  0  0
 29 27  1  0  0  0  0
 30 31  1  0  0  0  0
 30 32  1  0  0  0  0
 33 35  1  0  0  0  0
 33 30  1  0  0  0  0
 34 33  1  0  0  0  0
 36 33  1  0  0  0  0
 36 37  1  0  0  0  0
 38 36  1  0  0  0  0
 39 36  1  0  0  0  0
 39 25  1  0  0  0  0
 40 39  1  0  0  0  0
 41 39  1  0  0  0  0
 42  3  1  0  0  0  0
M  END
