1,3
 OpenBabel05122313063D

 12 11  0  0  0  0  0  0  0  0999 V2000
    1.5703   -1.1820   -0.4532 O   0  5  0  0  0  0  0  0  0  0  0  0
    3.8035   -1.3186   -0.2028 O   0  0  0  0  0  0  0  0  0  0  0  0
    1.4719    1.3848    0.4162 N   0  0  0  0  0  0  0  0  0  0  0  0
    1.1568    1.9338    1.2278 H   0  0  0  0  0  0  0  0  0  0  0  0
    2.7421   -0.7394   -0.0389 C   0  0  0  0  0  0  0  0  0  0  0  0
    2.6792    0.5864    0.7619 C   0  0  0  0  0  0  0  0  0  0  0  0
    3.6109    1.1689    0.6055 H   0  0  0  0  0  0  0  0  0  0  0  0
    2.6194    0.3154    1.8355 H   0  0  0  0  0  0  0  0  0  0  0  0
    1.6796    2.2989   -0.7261 C   0  0  0  0  0  0  0  0  0  0  0  0
    0.7339    2.8268   -0.9482 H   0  0  0  0  0  0  0  0  0  0  0  0
    2.4791    3.0383   -0.5003 H   0  0  0  0  0  0  0  0  0  0  0  0
    1.9785    1.7097   -1.6131 H   0  0  0  0  0  0  0  0  0  0  0  0
  1  5  1  0  0  0  0
  2  5  2  0  0  0  0
  3  6  1  0  0  0  0
  3  4  1  0  0  0  0
  5  6  1  0  0  0  0
  6  8  1  0  0  0  0
  7  6  1  0  0  0  0
  9 11  1  0  0  0  0
  9  3  1  0  0  0  0
 10  9  1  0  0  0  0
 12  9  1  0  0  0  0
M  CHG  1   1  -1
M  END
