1,2
 OpenBabel05122313063D

 33 34  0  0  1  0  0  0  0  0999 V2000
    2.0072    0.1079    0.7576 O   0  5  0  0  0  0  0  0  0  0  0  0
    0.7411   -1.2962   -0.4624 N   0  0  0  0  0  2  0  0  0  0  0  0
    0.5422   -2.2404   -1.4111 C   0  0  1  0  0  3  0  0  0  0  0  0
   -0.8952   -2.7098   -1.6695 C   0  0  0  0  0  0  0  0  0  0  0  0
    1.9766   -0.7830   -0.2208 C   0  0  0  0  0  0  0  0  0  0  0  0
    5.6324   -1.4339   -0.8325 C   0  0  0  0  0  0  0  0  0  0  0  0
    5.5175   -2.4996   -1.0830 H   0  0  0  0  0  0  0  0  0  0  0  0
    3.1364   -1.1898   -0.9487 C   0  0  0  0  0  0  0  0  0  0  0  0
    1.6374   -2.7051   -2.1600 C   0  0  0  0  0  0  0  0  0  0  0  0
    1.4995   -3.4640   -2.9386 H   0  0  0  0  0  0  0  0  0  0  0  0
    2.9139   -2.1736   -1.9254 C   0  0  0  0  0  0  0  0  0  0  0  0
    3.7617   -2.5172   -2.5379 H   0  0  0  0  0  0  0  0  0  0  0  0
   -1.6131   -1.5921   -2.4628 C   0  0  0  0  0  0  0  0  0  0  0  0
   -2.6822   -1.8484   -2.6127 H   0  0  0  0  0  0  0  0  0  0  0  0
   -1.1436   -1.4499   -3.4573 H   0  0  0  0  0  0  0  0  0  0  0  0
   -1.5665   -0.6278   -1.9250 H   0  0  0  0  0  0  0  0  0  0  0  0
   -1.6277   -2.9609   -0.3363 C   0  0  0  0  0  0  0  0  0  0  0  0
   -2.6499   -3.3409   -0.5365 H   0  0  0  0  0  0  0  0  0  0  0  0
   -1.7352   -2.0343    0.2554 H   0  0  0  0  0  0  0  0  0  0  0  0
   -1.0923   -3.7127    0.2782 H   0  0  0  0  0  0  0  0  0  0  0  0
    6.9153   -0.9079   -0.6308 C   0  0  0  0  0  0  0  0  0  0  0  0
    7.7953   -1.5604   -0.7397 H   0  0  0  0  0  0  0  0  0  0  0  0
    4.4804   -0.6253   -0.6896 C   0  0  0  0  0  0  0  0  0  0  0  0
    4.6588    0.7308   -0.3258 C   0  0  0  0  0  0  0  0  0  0  0  0
    3.7782    1.3730   -0.2014 H   0  0  0  0  0  0  0  0  0  0  0  0
    5.9431    1.2552   -0.1289 C   0  0  0  0  0  0  0  0  0  0  0  0
    6.0580    2.3147    0.1469 H   0  0  0  0  0  0  0  0  0  0  0  0
    7.0775    0.4416   -0.2795 C   0  0  0  0  0  0  0  0  0  0  0  0
    8.0843    0.8558   -0.1179 H   0  0  0  0  0  0  0  0  0  0  0  0
   -0.9287   -4.0071   -2.4977 C   0  0  0  0  0  0  0  0  0  0  0  0
   -1.9796   -4.3348   -2.6270 H   0  0  0  0  0  0  0  0  0  0  0  0
   -0.3769   -4.8279   -1.9961 H   0  0  0  0  0  0  0  0  0  0  0  0
   -0.5034   -3.8709   -3.5120 H   0  0  0  0  0  0  0  0  0  0  0  0
  2  5  1  0  0  0  0
  3  4  1  6  0  0  0
  3  2  1  0  0  0  0
  4 17  1  0  0  0  0
  5  1  1  0  0  0  0
  6 23  2  0  0  0  0
  6 21  1  0  0  0  0
  7  6  1  0  0  0  0
  8 23  1  0  0  0  0
  8  5  2  0  0  0  0
  9 11  2  0  0  0  0
  9  3  1  0  0  0  0
 10  9  1  0  0  0  0
 11  8  1  0  0  0  0
 12 11  1  0  0  0  0
 13 16  1  0  0  0  0
 13  4  1  0  0  0  0
 14 13  1  0  0  0  0
 15 13  1  0  0  0  0
 17 19  1  0  0  0  0
 17 20  1  0  0  0  0
 18 17  1  0  0  0  0
 21 28  2  0  0  0  0
 22 21  1  0  0  0  0
 23 24  1  0  0  0  0
 24 25  1  0  0  0  0
 24 26  2  0  0  0  0
 26 27  1  0  0  0  0
 28 26  1  0  0  0  0
 28 29  1  0  0  0  0
 30 32  1  0  0  0  0
 30  4  1  0  0  0  0
 31 30  1  0  0  0  0
 33 30  1  0  0  0  0
M  CHG  1   1  -1
M  END
