1,2
 OpenBabel05122313063D

 21 22  0  0  0  0  0  0  0  0999 V2000
    0.9281    0.0465   -1.4059 O   0  5  0  0  0  0  0  0  0  0  0  0
    0.2878    2.0599    0.3123 N   0  0  0  0  0  2  0  0  0  0  0  0
   -0.6373    2.9510    0.7433 C   0  0  0  0  0  3  0  0  0  0  0  0
   -0.3526    4.2962    0.9670 C   0  0  0  0  0  0  0  0  0  0  0  0
    0.9547    4.7478    0.7186 C   0  0  0  0  0  0  0  0  0  0  0  0
    1.9032    3.8371    0.2607 C   0  0  0  0  0  0  0  0  0  0  0  0
    1.5727    2.4699    0.0618 C   0  0  0  0  0  0  0  0  0  0  0  0
    2.5782    1.5299   -0.4419 C   0  0  0  0  0  0  0  0  0  0  0  0
    3.9607    1.7822   -0.2523 C   0  0  0  0  0  0  0  0  0  0  0  0
    4.9410    0.9818   -0.8373 C   0  0  0  0  0  0  0  0  0  0  0  0
    4.5478   -0.0957   -1.6613 C   0  0  0  0  0  0  0  0  0  0  0  0
    3.1997   -0.3860   -1.8522 C   0  0  0  0  0  0  0  0  0  0  0  0
    2.1799    0.3893   -1.2254 C   0  0  0  0  0  0  0  0  0  0  0  0
   -1.6290    2.5234    0.9437 H   0  0  0  0  0  0  0  0  0  0  0  0
   -1.1445    4.9693    1.3232 H   0  0  0  0  0  0  0  0  0  0  0  0
    1.2253    5.8046    0.8637 H   0  0  0  0  0  0  0  0  0  0  0  0
    2.9183    4.1723    0.0128 H   0  0  0  0  0  0  0  0  0  0  0  0
    4.2679    2.6156    0.3979 H   0  0  0  0  0  0  0  0  0  0  0  0
    6.0056    1.1870   -0.6538 H   0  0  0  0  0  0  0  0  0  0  0  0
    5.3116   -0.7298   -2.1385 H   0  0  0  0  0  0  0  0  0  0  0  0
    2.8708   -1.2402   -2.4608 H   0  0  0  0  0  0  0  0  0  0  0  0
  1 13  1  0  0  0  0
  2  3  1  0  0  0  0
  3 14  1  0  0  0  0
  3  4  1  0  0  0  0
  4 15  1  0  0  0  0
  5 16  1  0  0  0  0
  5  4  2  0  0  0  0
  6  5  1  0  0  0  0
  7  6  2  0  0  0  0
  7  2  1  0  0  0  0
  8  9  1  0  0  0  0
  8  7  1  0  0  0  0
  9 18  1  0  0  0  0
 10 19  1  0  0  0  0
 10  9  2  0  0  0  0
 11 10  1  0  0  0  0
 12 11  2  0  0  0  0
 12 13  1  0  0  0  0
 13  8  2  0  0  0  0
 17  6  1  0  0  0  0
 20 11  1  0  0  0  0
 21 12  1  0  0  0  0
M  CHG  1   1  -1
M  END
