2,3
 OpenBabel05122313063D

 36 37  0  0  0  0  0  0  0  0999 V2000
    6.0935    3.9662   -0.1028 Cl  0  0  0  0  0  0  0  0  0  0  0  0
    0.0068    1.9212    0.1260 N   0  0  0  0  0  2  0  0  0  0  0  0
    1.8405   -0.1090    0.3457 O   0  5  0  0  0  0  0  0  0  0  0  0
    5.6957   -1.3612    0.5681 O   0  0  0  0  0  0  0  0  0  0  0  0
    2.7525    0.8121    0.2695 C   0  0  0  0  0  0  0  0  0  0  0  0
    4.1454    0.4489    0.3542 C   0  0  0  0  0  0  0  0  0  0  0  0
    5.1482    1.4183    0.2238 C   0  0  0  0  0  0  0  0  0  0  0  0
    6.1935    1.0768    0.2737 H   0  0  0  0  0  0  0  0  0  0  0  0
    4.8259    2.7745    0.0500 C   0  0  0  0  0  0  0  0  0  0  0  0
    3.4879    3.1690    0.0138 C   0  0  0  0  0  3  0  0  0  0  0  0
    3.2355    4.2342   -0.0967 H   0  0  0  0  0  0  0  0  0  0  0  0
    2.4467    2.2127    0.1161 C   0  0  0  0  0  0  0  0  0  0  0  0
    4.5360   -0.9598    0.5877 C   0  0  0  0  0  0  0  0  0  0  0  0
    3.6809   -1.6484    0.8018 H   0  0  0  0  0  0  0  0  0  0  0  0
    1.0899    2.6675    0.1252 C   0  0  0  0  0  0  0  0  0  0  0  0
    0.9414    3.7642    0.1585 H   0  0  0  0  0  0  0  0  0  0  0  0
   -1.2343    2.6425    0.1843 C   0  0  0  0  0  0  0  0  0  0  0  0
   -1.6766    3.3637   -0.9493 C   0  0  0  0  0  0  0  0  0  0  0  0
   -2.8844    4.0788   -0.8474 C   0  0  0  0  0  0  0  0  0  0  0  0
   -3.2475    4.6283   -1.7307 H   0  0  0  0  0  0  0  0  0  0  0  0
   -3.6623    4.0720    0.3248 C   0  0  0  0  0  0  0  0  0  0  0  0
   -3.1886    3.3351    1.4278 C   0  0  0  0  0  0  0  0  0  0  0  0
   -3.7880    3.3043    2.3518 H   0  0  0  0  0  0  0  0  0  0  0  0
   -1.9869    2.6097    1.3816 C   0  0  0  0  0  0  0  0  0  0  0  0
   -0.9047    3.3255   -2.2442 C   0  0  0  0  0  0  0  0  0  0  0  0
    0.0270    3.9284   -2.2033 H   0  0  0  0  0  0  0  0  0  0  0  0
   -1.5158    3.7197   -3.0779 H   0  0  0  0  0  0  0  0  0  0  0  0
   -0.5999    2.2882   -2.4922 H   0  0  0  0  0  0  0  0  0  0  0  0
   -5.0177    4.7259    0.3580 C   0  0  0  0  0  0  0  0  0  0  0  0
   -5.7796    3.9855    0.0303 H   0  0  0  0  0  0  0  0  0  0  0  0
   -5.0752    5.5953   -0.3257 H   0  0  0  0  0  0  0  0  0  0  0  0
   -5.2909    5.0608    1.3779 H   0  0  0  0  0  0  0  0  0  0  0  0
   -1.5185    1.7885    2.5525 C   0  0  0  0  0  0  0  0  0  0  0  0
   -1.4508    0.7164    2.2686 H   0  0  0  0  0  0  0  0  0  0  0  0
   -2.2105    1.8793    3.4106 H   0  0  0  0  0  0  0  0  0  0  0  0
   -0.5043    2.0876    2.8890 H   0  0  0  0  0  0  0  0  0  0  0  0
  1  9  1  0  0  0  0
  2 17  1  0  0  0  0
  4 13  2  0  0  0  0
  5  3  1  0  0  0  0
  5  6  2  0  0  0  0
  6 13  1  0  0  0  0
  7  8  1  0  0  0  0
  7  6  1  0  0  0  0
  9  7  2  0  0  0  0
 10  9  1  0  0  0  0
 10 12  1  0  0  0  0
 11 10  1  0  0  0  0
 12 15  2  0  0  0  0
 12  5  1  0  0  0  0
 13 14  1  0  0  0  0
 15  2  1  0  0  0  0
 15 16  1  0  0  0  0
 17 24  1  0  0  0  0
 18 19  1  0  0  0  0
 18 17  2  0  0  0  0
 19 21  2  0  0  0  0
 20 19  1  0  0  0  0
 21 29  1  0  0  0  0
 21 22  1  0  0  0  0
 22 23  1  0  0  0  0
 24 22  2  0  0  0  0
 24 33  1  0  0  0  0
 25 26  1  0  0  0  0
 25 18  1  0  0  0  0
 27 25  1  0  0  0  0
 28 25  1  0  0  0  0
 29 32  1  0  0  0  0
 30 29  1  0  0  0  0
 31 29  1  0  0  0  0
 33 36  1  0  0  0  0
 33 35  1  0  0  0  0
 34 33  1  0  0  0  0
M  CHG  1   3  -1
M  END
