2,3
 OpenBabel05122313063D

 36 37  0  0  1  0  0  0  0  0999 V2000
   -6.0938   -3.9654    0.1045 Cl  0  0  0  0  0  0  0  0  0  0  0  0
   -0.0068   -1.9213   -0.1259 N   0  0  0  0  0  2  0  0  0  0  0  0
   -1.8402    0.1089   -0.3467 O   0  0  0  0  0  1  0  0  0  0  0  0
   -5.6952    1.3615   -0.5700 O   0  0  0  0  0  0  0  0  0  0  0  0
   -2.7523   -0.8119   -0.2699 C   0  0  1  0  0  3  0  0  0  0  0  0
   -4.1451   -0.4487   -0.3549 C   0  0  0  0  0  0  0  0  0  0  0  0
   -5.1481   -1.4179   -0.2238 C   0  0  0  0  0  0  0  0  0  0  0  0
   -6.1934   -1.0762   -0.2740 H   0  0  0  0  0  0  0  0  0  0  0  0
   -4.8260   -2.7740   -0.0491 C   0  0  0  0  0  0  0  0  0  0  0  0
   -3.4880   -3.1686   -0.0127 C   0  0  0  0  0  0  0  0  0  0  0  0
   -3.2357   -4.2338    0.0985 H   0  0  0  0  0  0  0  0  0  0  0  0
   -2.4467   -2.2125   -0.1157 C   0  0  0  0  0  0  0  0  0  0  0  0
   -4.5356    0.9600   -0.5893 C   0  0  0  0  0  0  0  0  0  0  0  0
   -3.6804    1.6483   -0.8039 H   0  0  0  0  0  0  0  0  0  0  0  0
   -1.0900   -2.6674   -0.1246 C   0  0  0  0  0  0  0  0  0  0  0  0
   -0.9415   -3.7642   -0.1574 H   0  0  0  0  0  0  0  0  0  0  0  0
    1.2342   -2.6428   -0.1842 C   0  0  0  0  0  0  0  0  0  0  0  0
    1.6767   -3.3638    0.9494 C   0  0  0  0  0  0  0  0  0  0  0  0
    2.8843   -4.0790    0.8475 C   0  0  0  0  0  0  0  0  0  0  0  0
    3.2475   -4.6285    1.7308 H   0  0  0  0  0  0  0  0  0  0  0  0
    3.6620   -4.0726   -0.3249 C   0  0  0  0  0  0  0  0  0  0  0  0
    3.1883   -3.3359   -1.4279 C   0  0  0  0  0  0  0  0  0  0  0  0
    3.7875   -3.3053   -2.3520 H   0  0  0  0  0  0  0  0  0  0  0  0
    1.9867   -2.6103   -1.3817 C   0  0  0  0  0  0  0  0  0  0  0  0
    0.9049   -3.3252    2.2445 C   0  0  0  0  0  0  0  0  0  0  0  0
   -0.0268   -3.9280    2.2038 H   0  0  0  0  0  0  0  0  0  0  0  0
    1.5161   -3.7193    3.0781 H   0  0  0  0  0  0  0  0  0  0  0  0
    0.6003   -2.2878    2.4922 H   0  0  0  0  0  0  0  0  0  0  0  0
    5.0174   -4.7267   -0.3581 C   0  0  0  0  0  0  0  0  0  0  0  0
    5.7794   -3.9864   -0.0305 H   0  0  0  0  0  0  0  0  0  0  0  0
    5.0748   -5.5961    0.3257 H   0  0  0  0  0  0  0  0  0  0  0  0
    5.2904   -5.0617   -1.3780 H   0  0  0  0  0  0  0  0  0  0  0  0
    1.5183   -1.7892   -2.5527 C   0  0  0  0  0  0  0  0  0  0  0  0
    1.4510   -0.7170   -2.2690 H   0  0  0  0  0  0  0  0  0  0  0  0
    2.2100   -1.8804   -3.4110 H   0  0  0  0  0  0  0  0  0  0  0  0
    0.5038   -2.0880   -2.8888 H   0  0  0  0  0  0  0  0  0  0  0  0
  2 15  1  0  0  0  0
  5  3  1  6  0  0  0
  5 12  1  0  0  0  0
  6  5  1  0  0  0  0
  6  7  2  0  0  0  0
  7  9  1  0  0  0  0
  8  7  1  0  0  0  0
  9 10  2  0  0  0  0
  9  1  1  0  0  0  0
 10 11  1  0  0  0  0
 12 10  1  0  0  0  0
 13  4  2  0  0  0  0
 13  6  1  0  0  0  0
 14 13  1  0  0  0  0
 15 12  2  0  0  0  0
 16 15  1  0  0  0  0
 17  2  1  0  0  0  0
 17 18  1  0  0  0  0
 18 25  1  0  0  0  0
 19 18  2  0  0  0  0
 19 20  1  0  0  0  0
 21 19  1  0  0  0  0
 22 24  1  0  0  0  0
 22 21  2  0  0  0  0
 23 22  1  0  0  0  0
 24 17  2  0  0  0  0
 25 28  1  0  0  0  0
 25 27  1  0  0  0  0
 26 25  1  0  0  0  0
 29 21  1  0  0  0  0
 29 30  1  0  0  0  0
 29 31  1  0  0  0  0
 32 29  1  0  0  0  0
 33 34  1  0  0  0  0
 33 24  1  0  0  0  0
 35 33  1  0  0  0  0
 36 33  1  0  0  0  0
M  END
