3,4
 OpenBabel05122313063D

 30 30  0  0  0  0  0  0  0  0999 V2000
    3.1997    2.8305    0.3434 Cl  0  0  0  0  0  0  0  0  0  0  0  0
    5.3501   -2.1530    0.1026 Cl  0  0  0  0  0  0  0  0  0  0  0  0
    0.7028    1.4861   -0.2579 O   0  5  0  0  0  0  0  0  0  0  0  0
   -0.8562   -0.9212   -0.9417 N   0  0  0  0  0  2  0  0  0  0  0  0
   -3.5411   -1.3030    0.4268 N   0  3  0  0  0  0  0  0  0  0  0  0
    1.5592   -0.7892   -0.4240 C   0  0  0  0  0  0  0  0  0  0  0  0
    1.6728    0.6440   -0.1998 C   0  0  0  0  0  0  0  0  0  0  0  0
    3.0081    1.1235    0.0895 C   0  0  0  0  0  0  0  0  0  0  0  0
    4.1086    0.2824    0.1847 C   0  0  0  0  0  0  0  0  0  0  0  0
    5.0965    0.6997    0.4217 H   0  0  0  0  0  0  0  0  0  0  0  0
    3.9524   -1.1102   -0.0215 C   0  0  0  0  0  0  0  0  0  0  0  0
    2.7067   -1.6329   -0.3250 C   0  0  0  0  0  0  0  0  0  0  0  0
    2.5971   -2.7136   -0.4993 H   0  0  0  0  0  0  0  0  0  0  0  0
    0.3385   -1.4409   -0.8115 C   0  0  0  0  0  3  0  0  0  0  0  0
    0.4560   -2.5250   -1.0440 H   0  0  0  0  0  0  0  0  0  0  0  0
   -1.9080   -1.7796   -1.4664 C   0  0  0  0  0  0  0  0  0  0  0  0
   -1.7222   -2.8499   -1.2084 H   0  0  0  0  0  0  0  0  0  0  0  0
   -1.9076   -1.7340   -2.5800 H   0  0  0  0  0  0  0  0  0  0  0  0
   -3.3019   -1.3218   -1.0546 C   0  0  0  0  0  0  0  0  0  0  0  0
   -3.4453   -0.2737   -1.3963 H   0  0  0  0  0  0  0  0  0  0  0  0
   -4.0764   -1.9680   -1.5166 H   0  0  0  0  0  0  0  0  0  0  0  0
   -3.5818   -2.6457    1.0501 C   0  0  0  0  0  0  0  0  0  0  0  0
   -3.6277   -2.5222    2.1475 H   0  0  0  0  0  0  0  0  0  0  0  0
   -2.6591   -3.1974    0.7958 H   0  0  0  0  0  0  0  0  0  0  0  0
   -4.4674   -3.2048    0.6909 H   0  0  0  0  0  0  0  0  0  0  0  0
   -4.7282   -0.4694    0.7662 C   0  0  0  0  0  0  0  0  0  0  0  0
   -4.5493    0.5426    0.3503 H   0  0  0  0  0  0  0  0  0  0  0  0
   -4.8062   -0.4058    1.8664 H   0  0  0  0  0  0  0  0  0  0  0  0
   -5.6414   -0.9226    0.3350 H   0  0  0  0  0  0  0  0  0  0  0  0
   -2.7142   -0.7703    0.9327 H   0  0  0  0  0  0  0  0  0  0  0  0
  3  7  1  0  0  0  0
  4 14  1  0  0  0  0
  5 26  1  0  0  0  0
  5 30  1  0  0  0  0
  5 22  1  0  0  0  0
  6 12  2  0  0  0  0
  6  7  1  0  0  0  0
  7  8  2  0  0  0  0
  8  9  1  0  0  0  0
  8  1  1  0  0  0  0
  9 10  1  0  0  0  0
 11  2  1  0  0  0  0
 11  9  2  0  0  0  0
 12 11  1  0  0  0  0
 13 12  1  0  0  0  0
 14  6  1  0  0  0  0
 15 14  1  0  0  0  0
 16 17  1  0  0  0  0
 16 19  1  0  0  0  0
 16  4  1  0  0  0  0
 18 16  1  0  0  0  0
 19  5  1  0  0  0  0
 20 19  1  0  0  0  0
 21 19  1  0  0  0  0
 22 23  1  0  0  0  0
 24 22  1  0  0  0  0
 25 22  1  0  0  0  0
 26 28  1  0  0  0  0
 27 26  1  0  0  0  0
 29 26  1  0  0  0  0
M  CHG  2   3  -1   5   1
M  END
