1,2
 OpenBabel05122313063D

 34 36  0  0  0  0  0  0  0  0999 V2000
    0.1938   -0.1519   -0.8673 O   0  0  0  0  0  1  0  0  0  0  0  0
   -0.4066   -0.8241    1.4887 N   0  0  0  0  0  2  0  0  0  0  0  0
   -0.8653   -1.3378    2.6511 C   0  0  0  0  0  3  0  0  0  0  0  0
   -0.0175   -1.6491    3.7164 C   0  0  0  0  0  0  0  0  0  0  0  0
    1.3623   -1.4411    3.5588 C   0  0  0  0  0  0  0  0  0  0  0  0
    1.8364   -0.9249    2.3484 C   0  0  0  0  0  0  0  0  0  0  0  0
    0.9181   -0.6114    1.3316 C   0  0  0  0  0  0  0  0  0  0  0  0
    1.3085   -0.0165   -0.0317 C   0  0  0  0  0  0  0  0  0  0  0  0
    1.6480    1.4846    0.0751 C   0  0  0  0  0  0  0  0  0  0  0  0
    1.8536    2.1736   -1.1385 C   0  0  0  0  0  0  0  0  0  0  0  0
    2.0920    3.5529   -1.1423 C   0  0  0  0  0  0  0  0  0  0  0  0
    2.1285    4.2680    0.0687 C   0  0  0  0  0  0  0  0  0  0  0  0
    1.9298    3.5895    1.2782 C   0  0  0  0  0  0  0  0  0  0  0  0
    1.6916    2.2029    1.2815 C   0  0  0  0  0  0  0  0  0  0  0  0
    2.4946   -0.8149   -0.6065 C   0  0  0  0  0  0  0  0  0  0  0  0
    2.2368   -1.9517   -1.3937 C   0  0  0  0  0  0  0  0  0  0  0  0
    3.2983   -2.7232   -1.8886 C   0  0  0  0  0  0  0  0  0  0  0  0
    4.6264   -2.3687   -1.6011 C   0  0  0  0  0  0  0  0  0  0  0  0
    4.8884   -1.2302   -0.8233 C   0  0  0  0  0  0  0  0  0  0  0  0
    3.8273   -0.4539   -0.3315 C   0  0  0  0  0  0  0  0  0  0  0  0
   -1.9485   -1.5299    2.6900 H   0  0  0  0  0  0  0  0  0  0  0  0
   -0.4342   -2.0658    4.6441 H   0  0  0  0  0  0  0  0  0  0  0  0
    2.0638   -1.6919    4.3688 H   0  0  0  0  0  0  0  0  0  0  0  0
    2.9101   -0.7730    2.1731 H   0  0  0  0  0  0  0  0  0  0  0  0
    1.8055    1.6110   -2.0825 H   0  0  0  0  0  0  0  0  0  0  0  0
    2.2481    4.0774   -2.0973 H   0  0  0  0  0  0  0  0  0  0  0  0
    2.3118    5.3530    0.0659 H   0  0  0  0  0  0  0  0  0  0  0  0
    1.9544    4.1395    2.2313 H   0  0  0  0  0  0  0  0  0  0  0  0
    1.5322    1.6877    2.2402 H   0  0  0  0  0  0  0  0  0  0  0  0
    1.1949   -2.2112   -1.6305 H   0  0  0  0  0  0  0  0  0  0  0  0
    3.0850   -3.6068   -2.5092 H   0  0  0  0  0  0  0  0  0  0  0  0
    5.4581   -2.9739   -1.9927 H   0  0  0  0  0  0  0  0  0  0  0  0
    5.9266   -0.9351   -0.6073 H   0  0  0  0  0  0  0  0  0  0  0  0
    4.0378    0.4547    0.2536 H   0  0  0  0  0  0  0  0  0  0  0  0
  1  8  1  0  0  0  0
  2  3  1  0  0  0  0
  3 21  1  0  0  0  0
  3  4  1  0  0  0  0
  4 22  1  0  0  0  0
  5  4  2  0  0  0  0
  5 23  1  0  0  0  0
  6  5  1  0  0  0  0
  7  2  1  0  0  0  0
  7  6  2  0  0  0  0
  8  9  1  0  0  0  0
  8  7  1  0  0  0  0
  9 14  1  0  0  0  0
 10  9  2  0  0  0  0
 11 10  1  0  0  0  0
 11 12  2  0  0  0  0
 12 13  1  0  0  0  0
 13 14  2  0  0  0  0
 13 28  1  0  0  0  0
 14 29  1  0  0  0  0
 15 20  1  0  0  0  0
 15  8  1  0  0  0  0
 16 15  2  0  0  0  0
 17 18  2  0  0  0  0
 17 16  1  0  0  0  0
 18 19  1  0  0  0  0
 19 33  1  0  0  0  0
 19 20  2  0  0  0  0
 20 34  1  0  0  0  0
 24  6  1  0  0  0  0
 25 10  1  0  0  0  0
 26 11  1  0  0  0  0
 27 12  1  0  0  0  0
 30 16  1  0  0  0  0
 31 17  1  0  0  0  0
 32 18  1  0  0  0  0
M  END
