1,13
 OpenBabel05122313063D

 35 36  0  0  0  0  0  0  0  0999 V2000
   -1.9416   -0.4713    0.0002 O   0  5  0  0  0  0  0  0  0  0  0  0
   -2.4510   -1.6652    0.0002 C   0  0  0  0  0  0  0  0  0  0  0  0
   -3.8991   -1.7488    0.0005 C   0  0  0  0  0  0  0  0  0  0  0  0
   -4.5408   -2.9859    0.0005 C   0  0  0  0  0  0  0  0  0  0  0  0
   -5.6384   -3.0339    0.0008 H   0  0  0  0  0  0  0  0  0  0  0  0
   -3.7936   -4.1942    0.0004 C   0  0  0  0  0  0  0  0  0  0  0  0
   -4.3233   -5.1577    0.0004 H   0  0  0  0  0  0  0  0  0  0  0  0
   -2.4121   -4.1495    0.0002 C   0  0  0  0  0  3  0  0  0  0  0  0
   -1.8215   -5.0786    0.0001 H   0  0  0  0  0  0  0  0  0  0  0  0
   -1.7137   -2.8990    0.0001 C   0  0  0  0  0  0  0  0  0  0  0  0
   -0.2822   -2.9449    0.0001 C   0  0  0  0  0  0  0  0  0  0  0  0
    0.1599   -3.9612    0.0002 H   0  0  0  0  0  0  0  0  0  0  0  0
    0.5707   -1.9458   -0.0000 N   0  0  0  0  0  2  0  0  0  0  0  0
    1.9675   -2.2675   -0.0000 C   0  0  0  0  0  0  0  0  0  0  0  0
    2.6379   -2.4026    1.2372 C   0  0  0  0  0  0  0  0  0  0  0  0
    4.0010   -2.7485    1.2137 C   0  0  0  0  0  0  0  0  0  0  0  0
    4.5359   -2.8683    2.1689 H   0  0  0  0  0  0  0  0  0  0  0  0
    4.6760   -2.9354   -0.0001 C   0  0  0  0  0  0  0  0  0  0  0  0
    5.7395   -3.2205   -0.0001 H   0  0  0  0  0  0  0  0  0  0  0  0
    4.0007   -2.7493   -1.2139 C   0  0  0  0  0  0  0  0  0  0  0  0
    4.5355   -2.8698   -2.1691 H   0  0  0  0  0  0  0  0  0  0  0  0
    2.6376   -2.4034   -1.2373 C   0  0  0  0  0  0  0  0  0  0  0  0
   -4.5185   -0.5409    0.0007 O   0  0  0  0  0  0  0  0  0  0  0  0
   -5.9284   -0.5161    0.0011 C   0  0  0  0  0  0  0  0  0  0  0  0
   -6.2169    0.5511    0.0012 H   0  0  0  0  0  0  0  0  0  0  0  0
   -6.3534   -1.0103   -0.9027 H   0  0  0  0  0  0  0  0  0  0  0  0
   -6.3529   -1.0104    0.9050 H   0  0  0  0  0  0  0  0  0  0  0  0
    1.9072   -2.1526    2.5289 C   0  0  0  0  0  0  0  0  0  0  0  0
    2.5799   -2.2720    3.3991 H   0  0  0  0  0  0  0  0  0  0  0  0
    1.4927   -1.1219    2.5423 H   0  0  0  0  0  0  0  0  0  0  0  0
    1.0447   -2.8379    2.6626 H   0  0  0  0  0  0  0  0  0  0  0  0
    1.9067   -2.1542   -2.5290 C   0  0  0  0  0  0  0  0  0  0  0  0
    2.5792   -2.2742   -3.3993 H   0  0  0  0  0  0  0  0  0  0  0  0
    1.0441   -2.8395   -2.6622 H   0  0  0  0  0  0  0  0  0  0  0  0
    1.4923   -1.1234   -2.5430 H   0  0  0  0  0  0  0  0  0  0  0  0
  1  2  1  0  0  0  0
  2  3  2  0  0  0  0
  3  4  1  0  0  0  0
  3 23  1  0  0  0  0
  4  5  1  0  0  0  0
  6  7  1  0  0  0  0
  6  4  2  0  0  0  0
  8  6  1  0  0  0  0
  9  8  1  0  0  0  0
 10  8  1  0  0  0  0
 10  2  1  0  0  0  0
 11 10  2  0  0  0  0
 11 12  1  0  0  0  0
 13 11  1  0  0  0  0
 14 13  1  0  0  0  0
 14 15  1  0  0  0  0
 15 28  1  0  0  0  0
 16 15  2  0  0  0  0
 16 17  1  0  0  0  0
 18 19  1  0  0  0  0
 18 16  1  0  0  0  0
 20 18  2  0  0  0  0
 21 20  1  0  0  0  0
 22 20  1  0  0  0  0
 22 14  2  0  0  0  0
 23 24  1  0  0  0  0
 24 25  1  0  0  0  0
 24 27  1  0  0  0  0
 26 24  1  0  0  0  0
 28 30  1  0  0  0  0
 28 31  1  0  0  0  0
 28 29  1  0  0  0  0
 32 22  1  0  0  0  0
 33 32  1  0  0  0  0
 34 32  1  0  0  0  0
 35 32  1  0  0  0  0
M  CHG  1   1  -1
M  END
