1,13
 OpenBabel05122313063D

 29 30  0  0  0  0  0  0  0  0999 V2000
    1.9660   -0.3207    0.1749 O   0  5  0  0  0  0  0  0  0  0  0  0
    2.5771   -1.4619    0.0922 C   0  0  0  0  0  0  0  0  0  0  0  0
    4.0265   -1.4275    0.1464 C   0  0  0  0  0  0  0  0  0  0  0  0
    4.7710   -2.6009    0.0444 C   0  0  0  0  0  0  0  0  0  0  0  0
    5.8685   -2.5581    0.0764 H   0  0  0  0  0  0  0  0  0  0  0  0
    4.1296   -3.8608   -0.0977 C   0  0  0  0  0  0  0  0  0  0  0  0
    4.7393   -4.7724   -0.1753 H   0  0  0  0  0  0  0  0  0  0  0  0
    2.7496   -3.9310   -0.1290 C   0  0  0  0  0  3  0  0  0  0  0  0
    2.2402   -4.9023   -0.2244 H   0  0  0  0  0  0  0  0  0  0  0  0
    1.9478   -2.7478   -0.0343 C   0  0  0  0  0  0  0  0  0  0  0  0
    0.5272   -2.9144   -0.0107 C   0  0  0  0  0  0  0  0  0  0  0  0
    0.1750   -3.9645   -0.0235 H   0  0  0  0  0  0  0  0  0  0  0  0
   -0.4092   -1.9928    0.0662 N   0  0  0  0  0  2  0  0  0  0  0  0
   -1.7649   -2.4394    0.1204 C   0  0  0  0  0  0  0  0  0  0  0  0
   -2.3045   -3.2057   -0.9296 C   0  0  0  0  0  0  0  0  0  0  0  0
   -1.6859   -3.4152   -1.8150 H   0  0  0  0  0  0  0  0  0  0  0  0
   -3.6236   -3.6755   -0.8477 C   0  0  0  0  0  0  0  0  0  0  0  0
   -4.0393   -4.2739   -1.6727 H   0  0  0  0  0  0  0  0  0  0  0  0
   -4.4093   -3.3804    0.2769 C   0  0  0  0  0  0  0  0  0  0  0  0
   -5.4420   -3.7557    0.3434 H   0  0  0  0  0  0  0  0  0  0  0  0
   -3.8727   -2.6007    1.3155 C   0  0  0  0  0  0  0  0  0  0  0  0
   -4.4861   -2.3566    2.1960 H   0  0  0  0  0  0  0  0  0  0  0  0
   -2.5602   -2.1228    1.2372 C   0  0  0  0  0  0  0  0  0  0  0  0
   -2.1320   -1.5020    2.0365 H   0  0  0  0  0  0  0  0  0  0  0  0
    4.5410   -0.1795    0.2930 O   0  0  0  0  0  0  0  0  0  0  0  0
    5.9424   -0.0376    0.3509 C   0  0  0  0  0  0  0  0  0  0  0  0
    6.1388    1.0447    0.4649 H   0  0  0  0  0  0  0  0  0  0  0  0
    6.3807   -0.5831    1.2181 H   0  0  0  0  0  0  0  0  0  0  0  0
    6.4370   -0.4011   -0.5795 H   0  0  0  0  0  0  0  0  0  0  0  0
  2  3  2  0  0  0  0
  2  1  1  0  0  0  0
  3 25  1  0  0  0  0
  4  5  1  0  0  0  0
  4  3  1  0  0  0  0
  6  4  2  0  0  0  0
  7  6  1  0  0  0  0
  8  6  1  0  0  0  0
  8 10  1  0  0  0  0
  9  8  1  0  0  0  0
 10 11  2  0  0  0  0
 10  2  1  0  0  0  0
 11 13  1  0  0  0  0
 12 11  1  0  0  0  0
 13 14  1  0  0  0  0
 14 23  1  0  0  0  0
 15 17  1  0  0  0  0
 15 14  2  0  0  0  0
 16 15  1  0  0  0  0
 17 19  2  0  0  0  0
 18 17  1  0  0  0  0
 19 20  1  0  0  0  0
 19 21  1  0  0  0  0
 21 22  1  0  0  0  0
 23 21  2  0  0  0  0
 23 24  1  0  0  0  0
 25 26  1  0  0  0  0
 26 27  1  0  0  0  0
 26 28  1  0  0  0  0
 29 26  1  0  0  0  0
M  CHG  1   1  -1
M  END
