1,2
 OpenBabel05122313063D

 39 40  0  0  0  0  0  0  0  0999 V2000
    1.8127    0.3586    0.3235 O   0  5  0  0  0  0  0  0  0  0  0  0
   -0.4747    1.8621    0.1157 N   0  0  0  0  0  2  0  0  0  0  0  0
   -1.8559    2.2509    0.1731 C   0  0  0  0  0  0  0  0  0  0  0  0
    2.4612    1.4818    0.2455 C   0  0  0  0  0  0  0  0  0  0  0  0
    1.8138    2.7594    0.0961 C   0  0  0  0  0  0  0  0  0  0  0  0
    5.8621    0.1305    0.5314 O   0  0  0  0  0  0  0  0  0  0  0  0
    0.3883    2.8563    0.1070 C   0  0  0  0  0  0  0  0  0  0  0  0
   -0.0320    3.8807    0.1337 H   0  0  0  0  0  0  0  0  0  0  0  0
    2.5868    3.9456   -0.0072 C   0  0  0  0  0  3  0  0  0  0  0  0
    2.0507    4.9036   -0.1147 H   0  0  0  0  0  0  0  0  0  0  0  0
    3.9849    3.9393    0.0200 C   0  0  0  0  0  0  0  0  0  0  0  0
   -2.5737    2.0493    1.3752 C   0  0  0  0  0  0  0  0  0  0  0  0
   -2.4690    2.8208   -0.9669 C   0  0  0  0  0  0  0  0  0  0  0  0
    4.6132    2.6860    0.1916 C   0  0  0  0  0  0  0  0  0  0  0  0
    5.7122    2.6044    0.2406 H   0  0  0  0  0  0  0  0  0  0  0  0
   -4.5660    3.0254    0.3082 C   0  0  0  0  0  0  0  0  0  0  0  0
    3.9009    1.4875    0.3239 C   0  0  0  0  0  0  0  0  0  0  0  0
   -1.7145    2.9559   -2.2656 C   0  0  0  0  0  0  0  0  0  0  0  0
   -2.4050    3.1789   -3.1008 H   0  0  0  0  0  0  0  0  0  0  0  0
   -1.1670    2.0204   -2.5014 H   0  0  0  0  0  0  0  0  0  0  0  0
   -0.9564    3.7667   -2.2357 H   0  0  0  0  0  0  0  0  0  0  0  0
   -3.9192    2.4496    1.4189 C   0  0  0  0  0  0  0  0  0  0  0  0
   -4.4897    2.2818    2.3465 H   0  0  0  0  0  0  0  0  0  0  0  0
   -3.8176    3.2105   -0.8684 C   0  0  0  0  0  0  0  0  0  0  0  0
   -4.3097    3.6363   -1.7576 H   0  0  0  0  0  0  0  0  0  0  0  0
    4.6373    0.2263    0.5536 C   0  0  0  0  0  0  0  0  0  0  0  0
    3.9873   -0.6584    0.7680 H   0  0  0  0  0  0  0  0  0  0  0  0
    4.7961    5.2032   -0.1154 C   0  0  0  0  0  0  0  0  0  0  0  0
    4.1485    6.0984   -0.1880 H   0  0  0  0  0  0  0  0  0  0  0  0
    5.4742    5.3441    0.7518 H   0  0  0  0  0  0  0  0  0  0  0  0
    5.4374    5.1766   -1.0213 H   0  0  0  0  0  0  0  0  0  0  0  0
   -1.9108    1.3876    2.5531 C   0  0  0  0  0  0  0  0  0  0  0  0
   -1.5776    0.3634    2.2801 H   0  0  0  0  0  0  0  0  0  0  0  0
   -2.6007    1.3136    3.4147 H   0  0  0  0  0  0  0  0  0  0  0  0
   -1.0022    1.9353    2.8785 H   0  0  0  0  0  0  0  0  0  0  0  0
   -6.0439    3.3114    0.3387 C   0  0  0  0  0  0  0  0  0  0  0  0
   -6.3918    3.5862    1.3539 H   0  0  0  0  0  0  0  0  0  0  0  0
   -6.5905    2.3935    0.0307 H   0  0  0  0  0  0  0  0  0  0  0  0
   -6.3236    4.1230   -0.3613 H   0  0  0  0  0  0  0  0  0  0  0  0
  2  3  1  0  0  0  0
  3 12  1  0  0  0  0
  4  1  1  0  0  0  0
  4 17  2  0  0  0  0
  5  7  2  0  0  0  0
  5  4  1  0  0  0  0
  6 26  2  0  0  0  0
  7  2  1  0  0  0  0
  7  8  1  0  0  0  0
  9 11  1  0  0  0  0
  9  5  1  0  0  0  0
 10  9  1  0  0  0  0
 11 14  2  0  0  0  0
 12 22  2  0  0  0  0
 12 32  1  0  0  0  0
 13 24  1  0  0  0  0
 13  3  2  0  0  0  0
 14 15  1  0  0  0  0
 14 17  1  0  0  0  0
 16 36  1  0  0  0  0
 16 22  1  0  0  0  0
 17 26  1  0  0  0  0
 18 21  1  0  0  0  0
 18 13  1  0  0  0  0
 19 18  1  0  0  0  0
 20 18  1  0  0  0  0
 22 23  1  0  0  0  0
 24 16  2  0  0  0  0
 25 24  1  0  0  0  0
 26 27  1  0  0  0  0
 28 11  1  0  0  0  0
 28 30  1  0  0  0  0
 29 28  1  0  0  0  0
 31 28  1  0  0  0  0
 32 35  1  0  0  0  0
 32 34  1  0  0  0  0
 33 32  1  0  0  0  0
 36 37  1  0  0  0  0
 38 36  1  0  0  0  0
 39 36  1  0  0  0  0
M  CHG  1   1  -1
M  END
