1,3
 OpenBabel05122313063D

 22 22  0  0  1  0  0  0  0  0999 V2000
    1.4292   -1.4153   -0.0022 O   0  0  0  0  0  1  0  0  0  0  0  0
    5.3364    1.3790    0.0005 O   0  0  0  0  0  0  0  0  0  0  0  0
    1.3549    1.5065   -0.0010 N   0  0  0  0  0  2  0  0  0  0  0  0
    3.3630    0.0646   -0.0006 C   0  0  0  0  0  0  0  0  0  0  0  0
    2.7233   -1.2271   -0.0009 C   0  0  2  0  0  3  0  0  0  0  0  0
    3.5435   -2.3967   -0.0002 C   0  0  0  0  0  0  0  0  0  0  0  0
    4.9259   -2.2921    0.0007 C   0  0  0  0  0  0  0  0  0  0  0  0
    5.5797   -1.0379    0.0010 C   0  0  0  0  0  0  0  0  0  0  0  0
    4.8043    0.1235    0.0003 C   0  0  0  0  0  0  0  0  0  0  0  0
    2.6527    1.3082   -0.0013 C   0  0  0  0  0  0  0  0  0  0  0  0
    6.7433    1.5228    0.0014 C   0  0  0  0  0  0  0  0  0  0  0  0
    0.8831    2.8894   -0.0017 C   0  0  0  0  0  0  0  0  0  0  0  0
    3.0353   -3.3708   -0.0004 H   0  0  0  0  0  0  0  0  0  0  0  0
    5.5369   -3.2084    0.0014 H   0  0  0  0  0  0  0  0  0  0  0  0
    6.6750   -0.9923    0.0018 H   0  0  0  0  0  0  0  0  0  0  0  0
    3.2910    2.2092   -0.0021 H   0  0  0  0  0  0  0  0  0  0  0  0
    6.9461    2.6098    0.0014 H   0  0  0  0  0  0  0  0  0  0  0  0
    7.2041    1.0667    0.9057 H   0  0  0  0  0  0  0  0  0  0  0  0
    7.2053    1.0665   -0.9023 H   0  0  0  0  0  0  0  0  0  0  0  0
    1.7418    3.5904   -0.0026 H   0  0  0  0  0  0  0  0  0  0  0  0
    0.2459    3.0737   -0.8878 H   0  0  0  0  0  0  0  0  0  0  0  0
    0.2469    3.0748    0.8849 H   0  0  0  0  0  0  0  0  0  0  0  0
  2 11  1  0  0  0  0
  4  9  1  0  0  0  0
  5  1  1  6  0  0  0
  5  4  1  0  0  0  0
  5  6  1  0  0  0  0
  6  7  2  0  0  0  0
  7  8  1  0  0  0  0
  7 14  1  0  0  0  0
  8 15  1  0  0  0  0
  9  2  1  0  0  0  0
  9  8  2  0  0  0  0
 10  3  1  0  0  0  0
 10  4  2  0  0  0  0
 11 17  1  0  0  0  0
 11 18  1  0  0  0  0
 12  3  1  0  0  0  0
 12 22  1  0  0  0  0
 13  6  1  0  0  0  0
 16 10  1  0  0  0  0
 19 11  1  0  0  0  0
 20 12  1  0  0  0  0
 21 12  1  0  0  0  0
M  END
