1,2
 OpenBabel05122313063D

 40 41  0  0  0  0  0  0  0  0999 V2000
   -1.9947   -0.8576    0.3339 O   0  5  0  0  0  0  0  0  0  0  0  0
    0.0222   -1.1518   -1.4217 N   0  0  0  0  0  2  0  0  0  0  0  0
   -2.7314   -1.6921   -0.3633 C   0  0  0  0  0  0  0  0  0  0  0  0
   -2.1963   -2.2298   -1.5780 C   0  0  0  0  0  0  0  0  0  0  0  0
   -2.9837   -3.0981   -2.3747 C   0  0  0  0  0  0  0  0  0  0  0  0
   -2.5632   -3.4946   -3.3125 H   0  0  0  0  0  0  0  0  0  0  0  0
   -4.2643   -3.4440   -1.9619 C   0  0  0  0  0  0  0  0  0  0  0  0
   -4.8831   -4.1224   -2.5669 H   0  0  0  0  0  0  0  0  0  0  0  0
   -4.7739   -2.9200   -0.7535 C   0  0  0  0  0  0  0  0  0  0  0  0
   -5.7867   -3.2177   -0.4506 H   0  0  0  0  0  0  0  0  0  0  0  0
   -4.0503   -2.0442    0.0710 C   0  0  0  0  0  0  0  0  0  0  0  0
   -4.6065   -1.5147    1.4048 C   0  0  0  0  0  0  0  0  0  0  0  0
   -6.0600   -1.9716    1.6273 C   0  0  0  0  0  0  0  0  0  0  0  0
   -6.1499   -3.0759    1.6723 H   0  0  0  0  0  0  0  0  0  0  0  0
   -6.7407   -1.5977    0.8349 H   0  0  0  0  0  0  0  0  0  0  0  0
   -6.4240   -1.5732    2.5951 H   0  0  0  0  0  0  0  0  0  0  0  0
   -3.7418   -2.0667    2.5646 C   0  0  0  0  0  0  0  0  0  0  0  0
   -3.7729   -3.1748    2.5853 H   0  0  0  0  0  0  0  0  0  0  0  0
   -4.1311   -1.6932    3.5343 H   0  0  0  0  0  0  0  0  0  0  0  0
   -2.6864   -1.7497    2.4771 H   0  0  0  0  0  0  0  0  0  0  0  0
   -4.5846    0.0331    1.4331 C   0  0  0  0  0  0  0  0  0  0  0  0
   -5.1056    0.4587    0.5509 H   0  0  0  0  0  0  0  0  0  0  0  0
   -3.5513    0.4242    1.4682 H   0  0  0  0  0  0  0  0  0  0  0  0
   -5.1067    0.3950    2.3425 H   0  0  0  0  0  0  0  0  0  0  0  0
   -0.8855   -1.8534   -2.0452 C   0  0  0  0  0  3  0  0  0  0  0  0
   -0.6440   -2.2001   -3.0744 H   0  0  0  0  0  0  0  0  0  0  0  0
    1.2339   -0.8569   -2.1836 C   0  0  0  0  0  0  0  0  0  0  0  0
    1.5098    0.2025   -2.0174 H   0  0  0  0  0  0  0  0  0  0  0  0
    1.0096   -0.9486   -3.2724 H   0  0  0  0  0  0  0  0  0  0  0  0
    2.4333   -1.7332   -1.8767 C   0  0  0  0  0  0  0  0  0  0  0  0
    2.3043   -3.0173   -1.3200 C   0  0  0  0  0  0  0  0  0  0  0  0
    1.3203   -3.3702   -0.9795 H   0  0  0  0  0  0  0  0  0  0  0  0
    3.4347   -3.8334   -1.1559 C   0  0  0  0  0  0  0  0  0  0  0  0
    3.3215   -4.8310   -0.7053 H   0  0  0  0  0  0  0  0  0  0  0  0
    4.7011   -3.3812   -1.5554 C   0  0  0  0  0  0  0  0  0  0  0  0
    5.5848   -4.0247   -1.4284 H   0  0  0  0  0  0  0  0  0  0  0  0
    4.8377   -2.0932   -2.0996 C   0  0  0  0  0  0  0  0  0  0  0  0
    5.8296   -1.7207   -2.3977 H   0  0  0  0  0  0  0  0  0  0  0  0
    3.7120   -1.2719   -2.2488 C   0  0  0  0  0  0  0  0  0  0  0  0
    3.8244   -0.2561   -2.6609 H   0  0  0  0  0  0  0  0  0  0  0  0
  3 11  1  0  0  0  0
  3  1  1  0  0  0  0
  4  3  2  0  0  0  0
  5  7  2  0  0  0  0
  5  4  1  0  0  0  0
  6  5  1  0  0  0  0
  7  9  1  0  0  0  0
  8  7  1  0  0  0  0
  9 10  1  0  0  0  0
  9 11  2  0  0  0  0
 11 12  1  0  0  0  0
 12 21  1  0  0  0  0
 12 13  1  0  0  0  0
 12 17  1  0  0  0  0
 13 14  1  0  0  0  0
 13 16  1  0  0  0  0
 15 13  1  0  0  0  0
 17 18  1  0  0  0  0
 17 19  1  0  0  0  0
 20 17  1  0  0  0  0
 21 23  1  0  0  0  0
 21 24  1  0  0  0  0
 22 21  1  0  0  0  0
 25  4  1  0  0  0  0
 25  2  1  0  0  0  0
 26 25  1  0  0  0  0
 27 28  1  0  0  0  0
 27 30  1  0  0  0  0
 27  2  1  0  0  0  0
 29 27  1  0  0  0  0
 30 31  1  0  0  0  0
 31 33  2  0  0  0  0
 31 32  1  0  0  0  0
 33 34  1  0  0  0  0
 35 36  1  0  0  0  0
 35 33  1  0  0  0  0
 37 35  2  0  0  0  0
 38 37  1  0  0  0  0
 39 37  1  0  0  0  0
 39 30  2  0  0  0  0
 40 39  1  0  0  0  0
M  CHG  1   1  -1
M  END
