1,2
 OpenBabel05122313063D

 24 26  0  0  1  0  0  0  0  0999 V2000
   -0.5098    2.0616    0.5172 O   0  5  0  0  0  0  0  0  0  0  0  0
    1.3541   -0.1363    0.6928 N   0  0  0  0  0  2  0  0  0  0  0  0
    0.3742    4.2302    0.5918 C   0  0  0  0  0  0  0  0  0  0  0  0
   -0.6631    4.5936    0.6227 H   0  0  0  0  0  0  0  0  0  0  0  0
    2.9886    3.2431    0.5023 C   0  0  0  0  0  0  0  0  0  0  0  0
    4.0224    2.8637    0.4656 H   0  0  0  0  0  0  0  0  0  0  0  0
    0.5588    2.8128    0.5645 C   0  0  0  0  0  0  0  0  0  0  0  0
    1.9131    2.3079    0.5640 C   0  0  0  0  0  0  0  0  0  0  0  0
    3.8692    0.4265    1.1082 S   0  0  0  0  0  0  0  0  0  0  0  0
    2.2087    0.9027    0.7290 C   0  0  1  0  0  3  0  0  0  0  0  0
    1.9722   -1.3491    1.0262 C   0  0  0  0  0  0  0  0  0  0  0  0
    1.4500    5.1065    0.5462 C   0  0  0  0  0  0  0  0  0  0  0  0
    1.2675    6.1921    0.5480 H   0  0  0  0  0  0  0  0  0  0  0  0
    2.7767    4.6139    0.4836 C   0  0  0  0  0  0  0  0  0  0  0  0
    3.6287    5.3059    0.4299 H   0  0  0  0  0  0  0  0  0  0  0  0
    1.3606   -2.6075    1.2085 C   0  0  0  0  0  0  0  0  0  0  0  0
    0.2760   -2.7161    1.1156 H   0  0  0  0  0  0  0  0  0  0  0  0
    3.3740   -1.2395    1.2429 C   0  0  0  0  0  0  0  0  0  0  0  0
    4.1711   -2.3489    1.5625 C   0  0  0  0  0  0  0  0  0  0  0  0
    5.2537   -2.2371    1.7178 H   0  0  0  0  0  0  0  0  0  0  0  0
    2.1517   -3.7147    1.5334 C   0  0  0  0  0  0  0  0  0  0  0  0
    1.6698   -4.6936    1.6733 H   0  0  0  0  0  0  0  0  0  0  0  0
    3.5473   -3.5952    1.6954 C   0  0  0  0  0  0  0  0  0  0  0  0
    4.1493   -4.4799    1.9484 H   0  0  0  0  0  0  0  0  0  0  0  0
  1  7  1  0  0  0  0
  2 10  1  0  0  0  0
  2 11  1  0  0  0  0
  3  4  1  0  0  0  0
  5  8  1  0  0  0  0
  6  5  1  0  0  0  0
  7  3  1  0  0  0  0
  8  7  2  0  0  0  0
  9 18  1  0  0  0  0
 10  8  1  1  0  0  0
 10  9  1  0  0  0  0
 11 16  2  0  0  0  0
 11 18  1  0  0  0  0
 12 13  1  0  0  0  0
 12  3  2  0  0  0  0
 14  5  2  0  0  0  0
 14 12  1  0  0  0  0
 15 14  1  0  0  0  0
 16 21  1  0  0  0  0
 17 16  1  0  0  0  0
 18 19  2  0  0  0  0
 19 23  1  0  0  0  0
 19 20  1  0  0  0  0
 21 22  1  0  0  0  0
 21 23  2  0  0  0  0
 23 24  1  0  0  0  0
M  CHG  1   1  -1
M  END
