1,2
 OpenBabel05122313063D

 18 18  0  0  0  0  0  0  0  0999 V2000
   -0.7811    0.4026    1.5429 O   0  5  0  0  0  0  0  0  0  0  0  0
   -1.1811   -0.6079   -0.8575 N   0  0  0  0  0  2  0  0  0  0  0  0
   -2.2826   -0.1089   -0.2239 C   0  0  0  0  0  0  0  0  0  0  0  0
   -1.9803    0.4162    1.1436 C   0  0  0  0  0  0  0  0  0  0  0  0
   -2.5587   -1.1863   -2.7502 C   0  0  0  0  0  0  0  0  0  0  0  0
   -2.6205   -1.6303   -3.7537 H   0  0  0  0  0  0  0  0  0  0  0  0
   -3.6931   -0.6675   -2.1104 C   0  0  0  0  0  0  0  0  0  0  0  0
   -4.6775   -0.6892   -2.5996 H   0  0  0  0  0  0  0  0  0  0  0  0
   -2.7771    1.3557    3.2826 C   0  0  0  0  0  0  0  0  0  0  0  0
   -1.7155    1.2219    3.5546 H   0  0  0  0  0  0  0  0  0  0  0  0
   -3.4079    0.7810    3.9895 H   0  0  0  0  0  0  0  0  0  0  0  0
   -3.0444    2.4293    3.3590 H   0  0  0  0  0  0  0  0  0  0  0  0
   -1.3241   -1.1372   -2.0933 C   0  0  0  0  0  0  0  0  0  0  0  0
   -0.4118   -1.5382   -2.5586 H   0  0  0  0  0  0  0  0  0  0  0  0
   -3.5486   -0.1227   -0.8276 C   0  0  0  0  0  0  0  0  0  0  0  0
   -4.4295    0.2874   -0.3125 H   0  0  0  0  0  0  0  0  0  0  0  0
   -2.9727    0.8709    1.9245 N   0  0  0  0  0  0  0  0  0  0  0  0
   -3.9263    0.8420    1.5614 H   0  0  0  0  0  0  0  0  0  0  0  0
  2  3  1  0  0  0  0
  3  4  2  0  0  0  0
  4  1  1  0  0  0  0
  4 17  1  0  0  0  0
  5  7  1  0  0  0  0
  5 13  2  0  0  0  0
  6  5  1  0  0  0  0
  7 15  2  0  0  0  0
  8  7  1  0  0  0  0
  9 12  1  0  0  0  0
  9 10  1  0  0  0  0
  9 11  1  0  0  0  0
 13  2  1  0  0  0  0
 14 13  1  0  0  0  0
 15 16  1  0  0  0  0
 15  3  1  0  0  0  0
 17  9  1  0  0  0  0
 18 17  1  0  0  0  0
M  CHG  1   1  -1
M  END
