1,2
 OpenBabel05122313063D

 36 37  0  0  1  0  0  0  0  0999 V2000
   -1.5212    0.9958   -0.8996 O   0  5  0  0  0  0  0  0  0  0  0  0
   -1.1380   -1.7100    0.0735 N   0  0  0  0  0  2  0  0  0  0  0  0
   -2.7702    0.6803   -0.8548 N   0  0  0  0  0  0  0  0  0  0  0  0
   -2.4756   -1.7278   -0.2148 C   0  0  2  0  0  3  0  0  0  0  0  0
   -3.1374   -2.9833   -0.3068 C   0  0  0  0  0  0  0  0  0  0  0  0
   -2.4560   -4.1723   -0.0624 C   0  0  0  0  0  0  0  0  0  0  0  0
   -1.0959   -4.1158    0.2825 C   0  0  0  0  0  0  0  0  0  0  0  0
   -0.4797   -2.8671    0.3251 C   0  0  0  0  0  0  0  0  0  0  0  0
   -3.2426   -0.5011   -0.4949 C   0  0  0  0  0  0  0  0  0  0  0  0
   -4.7355   -0.5471   -0.4726 C   0  0  0  0  0  0  0  0  0  0  0  0
   -5.4416   -1.1118    0.6125 C   0  0  0  0  0  0  0  0  0  0  0  0
   -6.8420   -1.1017    0.6415 C   0  0  0  0  0  0  0  0  0  0  0  0
   -7.5904   -0.5241   -0.4039 C   0  0  0  0  0  0  0  0  0  0  0  0
   -6.8814    0.0518   -1.4779 C   0  0  0  0  0  0  0  0  0  0  0  0
   -5.4822    0.0422   -1.5149 C   0  0  0  0  0  0  0  0  0  0  0  0
   -9.0982   -0.4635   -0.3428 C   0  0  0  0  0  0  0  0  0  0  0  0
   -9.6187    0.8120    0.3437 C   0  0  0  0  0  0  0  0  0  0  0  0
  -11.1461    0.8916    0.4126 C   0  0  0  0  0  0  0  0  0  0  0  0
  -11.6569    2.1606    1.0957 C   0  0  0  0  0  0  0  0  0  0  0  0
   -2.9807   -5.1361   -0.1446 H   0  0  0  0  0  0  0  0  0  0  0  0
  -11.5610    0.8266   -0.6182 H   0  0  0  0  0  0  0  0  0  0  0  0
   -4.1977   -2.9967   -0.5872 H   0  0  0  0  0  0  0  0  0  0  0  0
  -12.7646    2.1916    1.1311 H   0  0  0  0  0  0  0  0  0  0  0  0
   -4.8842   -1.5545    1.4526 H   0  0  0  0  0  0  0  0  0  0  0  0
   -4.9417    0.4975   -2.3573 H   0  0  0  0  0  0  0  0  0  0  0  0
   -7.4422    0.5102   -2.3087 H   0  0  0  0  0  0  0  0  0  0  0  0
   -7.3694   -1.5463    1.5010 H   0  0  0  0  0  0  0  0  0  0  0  0
   -9.2198    1.7007   -0.1941 H   0  0  0  0  0  0  0  0  0  0  0  0
    0.5853   -2.7433    0.5789 H   0  0  0  0  0  0  0  0  0  0  0  0
  -11.3134    3.0714    0.5621 H   0  0  0  0  0  0  0  0  0  0  0  0
   -0.5093   -5.0191    0.4996 H   0  0  0  0  0  0  0  0  0  0  0  0
  -11.2865    2.2331    2.1397 H   0  0  0  0  0  0  0  0  0  0  0  0
   -9.1926    0.8702    1.3700 H   0  0  0  0  0  0  0  0  0  0  0  0
   -9.4875   -1.3518    0.2002 H   0  0  0  0  0  0  0  0  0  0  0  0
  -11.5340   -0.0048    0.9463 H   0  0  0  0  0  0  0  0  0  0  0  0
   -9.5164   -0.5171   -1.3713 H   0  0  0  0  0  0  0  0  0  0  0  0
  1  3  1  0  0  0  0
  2  8  1  0  0  0  0
  3  9  2  0  0  0  0
  4  9  1  6  0  0  0
  4  2  1  0  0  0  0
  5  4  1  0  0  0  0
  5  6  2  0  0  0  0
  6  7  1  0  0  0  0
  7  8  2  0  0  0  0
  7 31  1  0  0  0  0
  8 29  1  0  0  0  0
  9 10  1  0  0  0  0
 10 11  1  0  0  0  0
 11 12  2  0  0  0  0
 11 24  1  0  0  0  0
 12 27  1  0  0  0  0
 13 16  1  0  0  0  0
 13 12  1  0  0  0  0
 14 13  2  0  0  0  0
 15 14  1  0  0  0  0
 15 10  2  0  0  0  0
 16 34  1  0  0  0  0
 16 17  1  0  0  0  0
 17 18  1  0  0  0  0
 17 33  1  0  0  0  0
 18 35  1  0  0  0  0
 18 19  1  0  0  0  0
 19 23  1  0  0  0  0
 19 32  1  0  0  0  0
 20  6  1  0  0  0  0
 21 18  1  0  0  0  0
 22  5  1  0  0  0  0
 25 15  1  0  0  0  0
 26 14  1  0  0  0  0
 28 17  1  0  0  0  0
 30 19  1  0  0  0  0
 36 16  1  0  0  0  0
M  CHG  1   1  -1
M  END
