1,2
 OpenBabel05122313063D

 31 31  0  0  1  0  0  0  0  0999 V2000
   -0.1426    1.5520   -1.3422 O   0  5  0  0  0  0  0  0  0  0  0  0
    2.0903    0.2886   -0.2780 N   0  0  0  0  0  2  0  0  0  0  0  0
   -0.0132    3.7745   -2.1562 C   0  0  0  0  0  0  0  0  0  0  0  0
   -0.4544    3.4754   -3.1286 H   0  0  0  0  0  0  0  0  0  0  0  0
    0.7014    4.6027   -2.3147 H   0  0  0  0  0  0  0  0  0  0  0  0
   -0.8525    4.1268   -1.5210 H   0  0  0  0  0  0  0  0  0  0  0  0
    0.6160    2.5709   -1.4992 C   0  0  0  0  0  0  0  0  0  0  0  0
    1.9693    2.5782   -1.1179 C   0  0  0  0  0  0  0  0  0  0  0  0
    2.5620    3.4758   -1.3359 H   0  0  0  0  0  0  0  0  0  0  0  0
    2.6719    1.4387   -0.6550 C   0  0  2  0  0  3  0  0  0  0  0  0
    4.1814    1.5213   -0.6359 C   0  0  0  0  0  0  0  0  0  0  0  0
    4.5899    1.2153    0.3467 H   0  0  0  0  0  0  0  0  0  0  0  0
    4.5235    2.5439   -0.8745 H   0  0  0  0  0  0  0  0  0  0  0  0
    4.6149    0.8205   -1.3783 H   0  0  0  0  0  0  0  0  0  0  0  0
    2.9387   -0.8416   -0.0010 C   0  0  0  0  0  0  0  0  0  0  0  0
    3.2622   -1.7228   -1.0631 C   0  0  0  0  0  0  0  0  0  0  0  0
    4.0837   -2.8304   -0.7767 C   0  0  0  0  0  0  0  0  0  0  0  0
    4.3394   -3.5259   -1.5913 H   0  0  0  0  0  0  0  0  0  0  0  0
    4.5718   -3.0515    0.5167 C   0  0  0  0  0  0  0  0  0  0  0  0
    5.2131   -3.9219    0.7222 H   0  0  0  0  0  0  0  0  0  0  0  0
    4.2422   -2.1641    1.5504 C   0  0  0  0  0  0  0  0  0  0  0  0
    4.6249   -2.3371    2.5684 H   0  0  0  0  0  0  0  0  0  0  0  0
    3.4177   -1.0483    1.3180 C   0  0  0  0  0  0  0  0  0  0  0  0
    3.0317   -0.1249    2.4425 C   0  0  0  0  0  0  0  0  0  0  0  0
    3.6597   -0.3039    3.3357 H   0  0  0  0  0  0  0  0  0  0  0  0
    1.9691   -0.2906    2.7151 H   0  0  0  0  0  0  0  0  0  0  0  0
    3.1094    0.9444    2.1611 H   0  0  0  0  0  0  0  0  0  0  0  0
    2.7329   -1.4867   -2.4525 C   0  0  0  0  0  0  0  0  0  0  0  0
    2.9656   -0.4658   -2.8206 H   0  0  0  0  0  0  0  0  0  0  0  0
    1.6259   -1.5794   -2.4714 H   0  0  0  0  0  0  0  0  0  0  0  0
    3.1590   -2.2161   -3.1670 H   0  0  0  0  0  0  0  0  0  0  0  0
  2 15  1  0  0  0  0
  3  6  1  0  0  0  0
  3  7  1  0  0  0  0
  4  3  1  0  0  0  0
  5  3  1  0  0  0  0
  7  1  1  0  0  0  0
  7  8  2  0  0  0  0
  9  8  1  0  0  0  0
 10  8  1  6  0  0  0
 10 11  1  0  0  0  0
 10  2  1  0  0  0  0
 11 12  1  0  0  0  0
 13 11  1  0  0  0  0
 14 11  1  0  0  0  0
 15 23  1  0  0  0  0
 16 17  1  0  0  0  0
 16 15  2  0  0  0  0
 17 19  2  0  0  0  0
 18 17  1  0  0  0  0
 19 20  1  0  0  0  0
 19 21  1  0  0  0  0
 21 22  1  0  0  0  0
 23 21  2  0  0  0  0
 23 24  1  0  0  0  0
 24 26  1  0  0  0  0
 24 25  1  0  0  0  0
 27 24  1  0  0  0  0
 28 16  1  0  0  0  0
 29 28  1  0  0  0  0
 30 28  1  0  0  0  0
 31 28  1  0  0  0  0
M  CHG  1   1  -1
M  END
