1,2
 OpenBabel05122313063D

 52 54  0  0  1  0  0  0  0  0999 V2000
    0.6728   -1.3267    0.6608 O   0  0  0  0  0  1  0  0  0  0  0  0
   -1.4480    0.1391   -0.5423 N   0  0  0  0  0  2  0  0  0  0  0  0
    1.8757   -0.5968    0.6239 C   0  0  1  0  0  0  0  0  0  0  0  0
    1.4235    0.8600    0.1186 C   0  0  2  0  0  0  0  0  0  0  0  0
    0.8386    0.8382   -1.2754 C   0  0  0  0  0  0  0  0  0  0  0  0
   -0.4748    0.5165   -1.4812 C   0  0  0  0  0  0  0  0  0  0  0  0
    2.4369   -0.5094    2.0472 C   0  0  0  0  0  0  0  0  0  0  0  0
    2.8211   -1.3072   -0.3473 C   0  0  0  0  0  0  0  0  0  0  0  0
    4.2223   -1.2190   -0.2256 C   0  0  0  0  0  0  0  0  0  0  0  0
    5.0645   -1.8389   -1.1624 C   0  0  0  0  0  0  0  0  0  0  0  0
    4.5185   -2.5670   -2.2299 C   0  0  0  0  0  0  0  0  0  0  0  0
    3.1239   -2.6825   -2.3439 C   0  0  0  0  0  0  0  0  0  0  0  0
    2.2817   -2.0631   -1.4098 C   0  0  0  0  0  0  0  0  0  0  0  0
    2.4458    1.9500    0.3840 C   0  0  0  0  0  0  0  0  0  0  0  0
    2.1297    2.9497    1.3287 C   0  0  0  0  0  0  0  0  0  0  0  0
    3.0355    3.9730    1.6437 C   0  0  0  0  0  0  0  0  0  0  0  0
    4.2895    4.0168    1.0159 C   0  0  0  0  0  0  0  0  0  0  0  0
    4.6197    3.0330    0.0710 C   0  0  0  0  0  0  0  0  0  0  0  0
    3.7086    2.0135   -0.2449 C   0  0  0  0  0  0  0  0  0  0  0  0
    1.6873    1.1742   -2.4728 C   0  0  0  0  0  0  0  0  0  0  0  0
   -2.7344    0.6833   -0.7938 C   0  0  0  0  0  0  0  0  0  0  0  0
   -2.9096    2.0820   -0.9007 C   0  0  0  0  0  0  0  0  0  0  0  0
   -4.1817    2.6234   -1.1131 C   0  0  0  0  0  0  0  0  0  0  0  0
   -5.3211    1.7975   -1.2370 C   0  0  0  0  0  0  0  0  0  0  0  0
   -5.1306    0.4039   -1.1564 C   0  0  0  0  0  0  0  0  0  0  0  0
   -3.8606   -0.1519   -0.9474 C   0  0  0  0  0  0  0  0  0  0  0  0
   -6.6869    2.3966   -1.4593 C   0  0  0  0  0  0  0  0  0  0  0  0
   -6.9791    3.0613   -0.6192 H   0  0  0  0  0  0  0  0  0  0  0  0
   -7.4648    1.6148   -1.5568 H   0  0  0  0  0  0  0  0  0  0  0  0
   -6.7124    3.0166   -2.3799 H   0  0  0  0  0  0  0  0  0  0  0  0
    0.5690    1.0594    0.8025 H   0  0  0  0  0  0  0  0  0  0  0  0
   -0.8559    0.5676   -2.5200 H   0  0  0  0  0  0  0  0  0  0  0  0
    2.6607   -1.5255    2.4254 H   0  0  0  0  0  0  0  0  0  0  0  0
    3.3569    0.1015    2.0884 H   0  0  0  0  0  0  0  0  0  0  0  0
    1.6919   -0.0335    2.7133 H   0  0  0  0  0  0  0  0  0  0  0  0
    4.6705   -0.6571    0.6056 H   0  0  0  0  0  0  0  0  0  0  0  0
    6.1564   -1.7558   -1.0502 H   0  0  0  0  0  0  0  0  0  0  0  0
    5.1785   -3.0548   -2.9633 H   0  0  0  0  0  0  0  0  0  0  0  0
    2.6834   -3.2674   -3.1657 H   0  0  0  0  0  0  0  0  0  0  0  0
    1.1916   -2.1731   -1.4916 H   0  0  0  0  0  0  0  0  0  0  0  0
    1.1460    2.9208    1.8249 H   0  0  0  0  0  0  0  0  0  0  0  0
    2.7594    4.7395    2.3840 H   0  0  0  0  0  0  0  0  0  0  0  0
    5.0059    4.8159    1.2597 H   0  0  0  0  0  0  0  0  0  0  0  0
    5.5990    3.0585   -0.4314 H   0  0  0  0  0  0  0  0  0  0  0  0
    3.9921    1.2539   -0.9841 H   0  0  0  0  0  0  0  0  0  0  0  0
    1.0878    1.1227   -3.4025 H   0  0  0  0  0  0  0  0  0  0  0  0
    2.1205    2.1933   -2.3973 H   0  0  0  0  0  0  0  0  0  0  0  0
    2.5386    0.4701   -2.5887 H   0  0  0  0  0  0  0  0  0  0  0  0
   -2.0298    2.7354   -0.7986 H   0  0  0  0  0  0  0  0  0  0  0  0
   -4.2979    3.7172   -1.1814 H   0  0  0  0  0  0  0  0  0  0  0  0
   -5.9974   -0.2657   -1.2765 H   0  0  0  0  0  0  0  0  0  0  0  0
   -3.7145   -1.2423   -0.9275 H   0  0  0  0  0  0  0  0  0  0  0  0
  3  1  1  1  0  0  0
  3  7  1  0  0  0  0
  4 14  1  0  0  0  0
  4  3  1  0  0  0  0
  4 31  1  1  0  0  0
  5  4  1  0  0  0  0
  6  5  2  0  0  0  0
  6  2  1  0  0  0  0
  7 34  1  0  0  0  0
  7 33  1  0  0  0  0
  7 35  1  0  0  0  0
  8  9  1  0  0  0  0
  8  3  1  0  0  0  0
  9 36  1  0  0  0  0
 10 37  1  0  0  0  0
 10  9  2  0  0  0  0
 11 10  1  0  0  0  0
 12 11  2  0  0  0  0
 12 13  1  0  0  0  0
 13  8  2  0  0  0  0
 14 15  1  0  0  0  0
 15 16  2  0  0  0  0
 15 41  1  0  0  0  0
 16 42  1  0  0  0  0
 17 43  1  0  0  0  0
 17 16  1  0  0  0  0
 18 17  2  0  0  0  0
 19 18  1  0  0  0  0
 19 14  2  0  0  0  0
 20 47  1  0  0  0  0
 20  5  1  0  0  0  0
 21  2  1  0  0  0  0
 22 49  1  0  0  0  0
 22 21  1  0  0  0  0
 23 22  2  0  0  0  0
 24 25  2  0  0  0  0
 24 23  1  0  0  0  0
 25 26  1  0  0  0  0
 26 52  1  0  0  0  0
 26 21  2  0  0  0  0
 27 24  1  0  0  0  0
 27 28  1  0  0  0  0
 29 27  1  0  0  0  0
 30 27  1  0  0  0  0
 32  6  1  0  0  0  0
 38 11  1  0  0  0  0
 39 12  1  0  0  0  0
 40 13  1  0  0  0  0
 44 18  1  0  0  0  0
 45 19  1  0  0  0  0
 46 20  1  0  0  0  0
 48 20  1  0  0  0  0
 50 23  1  0  0  0  0
 51 25  1  0  0  0  0
M  END
