2,4
 OpenBabel05122313063D

 28 30  0  0  0  0  0  0  0  0999 V2000
    5.0840    0.1849   -0.2290 O   0  0  0  0  0  0  0  0  0  0  0  0
    1.7063   -2.0984   -0.2652 O   0  5  0  0  0  0  0  0  0  0  0  0
    1.4471    1.3793    1.4909 O   0  0  0  0  0  1  0  0  0  0  0  0
    1.5243    0.2934    0.8239 N   0  0  0  0  0  2  0  0  0  0  0  0
    6.6442   -2.9608   -1.1919 C   0  0  0  0  0  0  0  0  0  0  0  0
    7.6471   -3.3420   -1.4350 H   0  0  0  0  0  0  0  0  0  0  0  0
    5.5299   -3.8286   -1.2483 C   0  0  0  0  0  0  0  0  0  0  0  0
    5.6710   -4.8815   -1.5323 H   0  0  0  0  0  0  0  0  0  0  0  0
    4.2560   -3.3525   -0.9434 C   0  0  0  0  0  3  0  0  0  0  0  0
    3.3667   -3.9984   -0.9712 H   0  0  0  0  0  0  0  0  0  0  0  0
    6.4915   -1.6186   -0.8358 C   0  0  0  0  0  0  0  0  0  0  0  0
    7.3418   -0.9238   -0.7969 H   0  0  0  0  0  0  0  0  0  0  0  0
    5.2049   -1.1458   -0.5287 C   0  0  0  0  0  0  0  0  0  0  0  0
    4.0783   -2.0000   -0.5732 C   0  0  0  0  0  0  0  0  0  0  0  0
    2.7851   -1.4468   -0.2044 C   0  0  0  0  0  0  0  0  0  0  0  0
    2.7767   -0.0768    0.2768 C   0  0  0  0  0  0  0  0  0  0  0  0
    3.8961    0.7423    0.1262 C   0  0  0  0  0  0  0  0  0  0  0  0
    3.9638    2.2022    0.2145 C   0  0  0  0  0  0  0  0  0  0  0  0
    5.1343    2.8302    0.6983 C   0  0  0  0  0  0  0  0  0  0  0  0
    5.9678    2.2128    1.0624 H   0  0  0  0  0  0  0  0  0  0  0  0
    5.2185    4.2265    0.7313 C   0  0  0  0  0  0  0  0  0  0  0  0
    6.1241    4.7107    1.1259 H   0  0  0  0  0  0  0  0  0  0  0  0
    4.1480    5.0063    0.2627 C   0  0  0  0  0  0  0  0  0  0  0  0
    4.2167    6.1044    0.2861 H   0  0  0  0  0  0  0  0  0  0  0  0
    2.9934    4.3861   -0.2451 C   0  0  0  0  0  0  0  0  0  0  0  0
    2.1631    4.9957   -0.6313 H   0  0  0  0  0  0  0  0  0  0  0  0
    2.8931    2.9918   -0.2704 C   0  0  0  0  0  0  0  0  0  0  0  0
    2.0000    2.5058   -0.6883 H   0  0  0  0  0  0  0  0  0  0  0  0
  1 17  1  0  0  0  0
  2 15  1  0  0  0  0
  4  3  1  0  0  0  0
  5 11  1  0  0  0  0
  6  5  1  0  0  0  0
  7  5  2  0  0  0  0
  7  9  1  0  0  0  0
  8  7  1  0  0  0  0
  9 14  1  0  0  0  0
 10  9  1  0  0  0  0
 11 12  1  0  0  0  0
 11 13  2  0  0  0  0
 13  1  1  0  0  0  0
 14 13  1  0  0  0  0
 14 15  2  0  0  0  0
 15 16  1  0  0  0  0
 16  4  1  0  0  0  0
 17 18  1  0  0  0  0
 17 16  2  0  0  0  0
 18 19  1  0  0  0  0
 19 21  2  0  0  0  0
 19 20  1  0  0  0  0
 21 22  1  0  0  0  0
 23 24  1  0  0  0  0
 23 21  1  0  0  0  0
 25 23  2  0  0  0  0
 26 25  1  0  0  0  0
 27 25  1  0  0  0  0
 27 18  2  0  0  0  0
 28 27  1  0  0  0  0
M  CHG  1   2  -1
M  END
