2,5
 OpenBabel05122313063D

 35 36  0  0  1  0  0  0  0  0999 V2000
    2.4904   -1.9463    0.2814 S   0  0  0  0  0  0  0  0  0  0  0  0
   -0.1272    1.0381   -0.6288 O   0  0  0  0  0  1  0  0  0  0  0  0
    1.0823    1.3460   -1.2757 C   0  0  2  0  0  0  0  0  0  0  0  0
    2.2181    0.5922   -0.4928 C   0  0  2  0  0  0  0  0  0  0  0  0
    1.5687   -0.6982   -0.2134 N   0  0  0  0  0  2  0  0  0  0  0  0
    3.7211   -1.5360    0.9863 O   0  0  0  0  0  0  0  0  0  0  0  0
    1.6029   -3.0017    0.8290 O   0  0  0  0  0  0  0  0  0  0  0  0
    3.1521   -2.6882   -1.3348 C   0  0  0  0  0  0  0  0  0  0  0  0
    2.1556   -3.2003   -2.0840 F   0  0  0  0  0  0  0  0  0  0  0  0
    4.0254   -3.6648   -1.0628 F   0  0  0  0  0  0  0  0  0  0  0  0
    3.7758   -1.7375   -2.0615 F   0  0  0  0  0  0  0  0  0  0  0  0
    1.3128    2.8382   -1.3777 C   0  0  0  0  0  0  0  0  0  0  0  0
    2.1082    3.3643   -2.4118 C   0  0  0  0  0  0  0  0  0  0  0  0
    2.3963    4.7367   -2.4620 C   0  0  0  0  0  0  0  0  0  0  0  0
    1.8836    5.5979   -1.4787 C   0  0  0  0  0  0  0  0  0  0  0  0
    1.0796    5.0794   -0.4503 C   0  0  0  0  0  0  0  0  0  0  0  0
    0.7961    3.7075   -0.3995 C   0  0  0  0  0  0  0  0  0  0  0  0
    2.6955    1.3559    0.7298 C   0  0  0  0  0  0  0  0  0  0  0  0
    3.7856    2.2372    0.6023 C   0  0  0  0  0  0  0  0  0  0  0  0
    4.1892    3.0415    1.6768 C   0  0  0  0  0  0  0  0  0  0  0  0
    3.5065    2.9720    2.9016 C   0  0  0  0  0  0  0  0  0  0  0  0
    2.4260    2.0870    3.0402 C   0  0  0  0  0  0  0  0  0  0  0  0
    2.0235    1.2831    1.9635 C   0  0  0  0  0  0  0  0  0  0  0  0
    1.0831    0.9164   -2.3077 H   0  0  0  0  0  0  0  0  0  0  0  0
    3.0808    0.4671   -1.1813 H   0  0  0  0  0  0  0  0  0  0  0  0
    2.5088    2.6883   -3.1850 H   0  0  0  0  0  0  0  0  0  0  0  0
    3.0210    5.1370   -3.2754 H   0  0  0  0  0  0  0  0  0  0  0  0
    2.1089    6.6748   -1.5160 H   0  0  0  0  0  0  0  0  0  0  0  0
    0.6775    5.7498    0.3250 H   0  0  0  0  0  0  0  0  0  0  0  0
    0.1807    3.2837    0.4071 H   0  0  0  0  0  0  0  0  0  0  0  0
    4.3206    2.2990   -0.3585 H   0  0  0  0  0  0  0  0  0  0  0  0
    5.0444    3.7245    1.5580 H   0  0  0  0  0  0  0  0  0  0  0  0
    3.8229    3.5999    3.7487 H   0  0  0  0  0  0  0  0  0  0  0  0
    1.8904    2.0164    4.0002 H   0  0  0  0  0  0  0  0  0  0  0  0
    1.1810    0.5877    2.0805 H   0  0  0  0  0  0  0  0  0  0  0  0
  1  7  2  0  0  0  0
  1  6  2  0  0  0  0
  3 24  1  6  0  0  0
  3  2  1  0  0  0  0
  3  4  1  0  0  0  0
  4 25  1  6  0  0  0
  4  5  1  0  0  0  0
  4 18  1  0  0  0  0
  5  1  1  0  0  0  0
  8 10  1  0  0  0  0
  8  1  1  0  0  0  0
  9  8  1  0  0  0  0
 11  8  1  0  0  0  0
 12  3  1  0  0  0  0
 12 17  1  0  0  0  0
 13 12  2  0  0  0  0
 14 13  1  0  0  0  0
 14 15  2  0  0  0  0
 15 16  1  0  0  0  0
 16 17  2  0  0  0  0
 16 29  1  0  0  0  0
 17 30  1  0  0  0  0
 18 23  1  0  0  0  0
 19 18  2  0  0  0  0
 19 20  1  0  0  0  0
 20 21  2  0  0  0  0
 21 22  1  0  0  0  0
 21 33  1  0  0  0  0
 22 34  1  0  0  0  0
 23 35  1  0  0  0  0
 23 22  2  0  0  0  0
 26 13  1  0  0  0  0
 27 14  1  0  0  0  0
 28 15  1  0  0  0  0
 31 19  1  0  0  0  0
 32 20  1  0  0  0  0
M  END
