12,13
 OpenBabel05122313063D

 14 14  0  0  1  0  0  0  0  0999 V2000
   -1.8581    2.2252    1.2653 C   0  0  0  0  0  0  0  0  0  0  0  0
   -1.4620    1.9724    2.2695 H   0  0  0  0  0  0  0  0  0  0  0  0
   -2.8132    1.6676    1.1495 H   0  0  0  0  0  0  0  0  0  0  0  0
   -2.0119    3.7394    0.9952 C   0  0  0  0  0  0  0  0  0  0  0  0
   -1.3111    4.3092    1.6386 H   0  0  0  0  0  0  0  0  0  0  0  0
   -3.0309    4.1084    1.2140 H   0  0  0  0  0  0  0  0  0  0  0  0
   -1.6072    3.8943   -0.4904 C   0  0  0  0  0  0  0  0  0  0  0  0
   -2.4781    3.8940   -1.1840 H   0  0  0  0  0  0  0  0  0  0  0  0
   -1.0338    4.8117   -0.7286 H   0  0  0  0  0  0  0  0  0  0  0  0
   -0.8052    2.6544   -0.7200 C   0  0  2  0  0  3  0  0  0  0  0  0
    0.0573    2.2921   -1.9045 C   0  0  0  0  0  0  0  0  0  0  0  0
   -0.9263    1.7586    0.2203 N   0  0  0  0  0  2  0  0  0  0  0  0
    0.6457    1.1243   -1.7512 O   0  5  0  0  0  0  0  0  0  0  0  0
    0.1411    3.0272   -2.8823 O   0  0  0  0  0  0  0  0  0  0  0  0
  1  2  1  0  0  0  0
  3  1  1  0  0  0  0
  4  6  1  0  0  0  0
  4  1  1  0  0  0  0
  4  5  1  0  0  0  0
  7  4  1  0  0  0  0
  8  7  1  0  0  0  0
  9  7  1  0  0  0  0
 10 11  1  6  0  0  0
 10  7  1  0  0  0  0
 10 12  1  0  0  0  0
 11 13  1  0  0  0  0
 12  1  1  0  0  0  0
 14 11  2  0  0  0  0
M  CHG  1  13  -1
M  END
