3,4
 OpenBabel05122313063D

 18 18  0  0  1  0  0  0  0  0999 V2000
   -5.2917   -0.2232    0.3333 F   0  0  0  0  0  0  0  0  0  0  0  0
   -4.0387   -1.9500    0.8036 F   0  0  0  0  0  0  0  0  0  0  0  0
   -0.6597    1.9632   -0.0391 N   0  0  0  0  0  2  0  0  0  0  0  0
   -1.8545   -0.7234   -0.2132 O   0  0  0  0  0  1  0  0  0  0  0  0
   -4.3907   -1.3924   -1.2749 F   0  0  0  0  0  0  0  0  0  0  0  0
   -2.9226   -0.0196   -0.0108 C   0  0  1  0  0  3  0  0  0  0  0  0
   -0.0336    4.2959   -0.1770 C   0  0  0  0  0  0  0  0  0  0  0  0
    0.7725    5.0313   -0.3023 H   0  0  0  0  0  0  0  0  0  0  0  0
   -1.9846    2.3074    0.0997 C   0  0  0  0  0  0  0  0  0  0  0  0
   -3.0435    1.3392    0.1743 C   0  0  0  0  0  0  0  0  0  0  0  0
   -4.0536    1.7367    0.3273 H   0  0  0  0  0  0  0  0  0  0  0  0
   -4.1797   -0.8955   -0.0359 C   0  0  0  0  0  0  0  0  0  0  0  0
   -2.3364    3.6880    0.1448 C   0  0  0  0  0  0  0  0  0  0  0  0
   -3.3975    3.9428    0.2749 H   0  0  0  0  0  0  0  0  0  0  0  0
    0.2723    2.9382   -0.1902 C   0  0  0  0  0  0  0  0  0  0  0  0
    1.3063    2.5833   -0.3008 H   0  0  0  0  0  0  0  0  0  0  0  0
   -1.3746    4.6794    0.0093 C   0  0  0  0  0  0  0  0  0  0  0  0
   -1.6606    5.7415    0.0402 H   0  0  0  0  0  0  0  0  0  0  0  0
  3  9  1  0  0  0  0
  5 12  1  0  0  0  0
  6  4  1  6  0  0  0
  6 10  1  0  0  0  0
  7 17  1  0  0  0  0
  8  7  1  0  0  0  0
  9 13  1  0  0  0  0
  9 10  2  0  0  0  0
 10 11  1  0  0  0  0
 12  6  1  0  0  0  0
 12  1  1  0  0  0  0
 12  2  1  0  0  0  0
 13 14  1  0  0  0  0
 15  7  2  0  0  0  0
 15  3  1  0  0  0  0
 16 15  1  0  0  0  0
 17 18  1  0  0  0  0
 17 13  2  0  0  0  0
M  END
