1,14
 OpenBabel05122313063D

 18 18  0  0  0  0  0  0  0  0999 V2000
   -0.6503   -1.9617   -0.0394 N   0  0  0  0  0  2  0  0  0  0  0  0
    0.2765   -2.9475   -0.1920 C   0  0  0  0  0  3  0  0  0  0  0  0
    1.3109   -2.6000   -0.3110 H   0  0  0  0  0  0  0  0  0  0  0  0
   -0.0361   -4.3020   -0.1740 C   0  0  0  0  0  0  0  0  0  0  0  0
    0.7676   -5.0397   -0.3011 H   0  0  0  0  0  0  0  0  0  0  0  0
   -1.3778   -4.6820    0.0149 C   0  0  0  0  0  0  0  0  0  0  0  0
   -1.6678   -5.7428    0.0485 H   0  0  0  0  0  0  0  0  0  0  0  0
   -2.3339   -3.6854    0.1470 C   0  0  0  0  0  0  0  0  0  0  0  0
   -3.3963   -3.9345    0.2773 H   0  0  0  0  0  0  0  0  0  0  0  0
   -1.9793   -2.3064    0.0988 C   0  0  0  0  0  0  0  0  0  0  0  0
   -3.0393   -1.3394    0.1676 C   0  0  0  0  0  0  0  0  0  0  0  0
   -4.0489   -1.7435    0.3067 H   0  0  0  0  0  0  0  0  0  0  0  0
   -2.9307    0.0217    0.0007 C   0  0  0  0  0  0  0  0  0  0  0  0
   -1.8611    0.7364   -0.1761 O   0  5  0  0  0  0  0  0  0  0  0  0
   -4.1888    0.8914   -0.0376 C   0  0  0  0  0  0  0  0  0  0  0  0
   -4.3905    1.3860   -1.2791 F   0  0  0  0  0  0  0  0  0  0  0  0
   -4.0624    1.9476    0.8016 F   0  0  0  0  0  0  0  0  0  0  0  0
   -5.2998    0.2116    0.3212 F   0  0  0  0  0  0  0  0  0  0  0  0
  1 10  1  0  0  0  0
  2  4  1  0  0  0  0
  2  1  1  0  0  0  0
  3  2  1  0  0  0  0
  4  6  2  0  0  0  0
  5  4  1  0  0  0  0
  6  7  1  0  0  0  0
  6  8  1  0  0  0  0
  8  9  1  0  0  0  0
 10  8  2  0  0  0  0
 10 11  1  0  0  0  0
 11 12  1  0  0  0  0
 13 11  2  0  0  0  0
 14 13  1  0  0  0  0
 15 13  1  0  0  0  0
 15 18  1  0  0  0  0
 15 17  1  0  0  0  0
 16 15  1  0  0  0  0
M  CHG  1  14  -1
M  END
