5,6
 OpenBabel05122313063D

 24 24  0  0  0  0  0  0  0  0999 V2000
   -4.2300   -0.3737   -1.7298 F   0  0  0  0  0  0  0  0  0  0  0  0
   -4.8559    1.7029   -1.3070 F   0  0  0  0  0  0  0  0  0  0  0  0
   -4.0379   -0.7202    1.1301 F   0  0  0  0  0  0  0  0  0  0  0  0
   -5.0038    1.2578    1.2939 F   0  0  0  0  0  0  0  0  0  0  0  0
   -1.8975   -0.0151   -0.6262 O   0  5  0  0  0  0  0  0  0  0  0  0
    0.0649    2.0734    0.0745 N   0  0  0  0  0  2  0  0  0  0  0  0
    1.2737    2.6603    0.2665 C   0  0  0  0  0  3  0  0  0  0  0  0
    2.1195    1.9673    0.3675 H   0  0  0  0  0  0  0  0  0  0  0  0
    1.4495    4.0379    0.3592 C   0  0  0  0  0  0  0  0  0  0  0  0
    2.4583    4.4419    0.5187 H   0  0  0  0  0  0  0  0  0  0  0  0
    0.3186    4.8678    0.2530 C   0  0  0  0  0  0  0  0  0  0  0  0
    0.4093    5.9618    0.3288 H   0  0  0  0  0  0  0  0  0  0  0  0
   -0.9196    4.2773    0.0433 C   0  0  0  0  0  0  0  0  0  0  0  0
   -1.8280    4.8875   -0.0584 H   0  0  0  0  0  0  0  0  0  0  0  0
   -1.0546    2.8623   -0.0623 C   0  0  0  0  0  0  0  0  0  0  0  0
   -2.3640    2.3307   -0.3200 C   0  0  0  0  0  0  0  0  0  0  0  0
   -3.1842    3.0574   -0.3556 H   0  0  0  0  0  0  0  0  0  0  0  0
   -2.6769    1.0167   -0.5850 C   0  0  0  0  0  0  0  0  0  0  0  0
   -4.1466    0.6439   -0.8266 C   0  0  0  0  0  0  0  0  0  0  0  0
   -4.8402    0.1754    0.4937 C   0  0  0  0  0  0  0  0  0  0  0  0
   -6.2316   -0.5058    0.3097 C   0  0  0  0  0  0  0  0  0  0  0  0
   -7.0307    0.2445   -0.4658 F   0  0  0  0  0  0  0  0  0  0  0  0
   -6.8139   -0.6528    1.5123 F   0  0  0  0  0  0  0  0  0  0  0  0
   -6.0916   -1.7183   -0.2480 F   0  0  0  0  0  0  0  0  0  0  0  0
  1 19  1  0  0  0  0
  2 19  1  0  0  0  0
  5 18  1  0  0  0  0
  6  7  1  0  0  0  0
  7  9  1  0  0  0  0
  7  8  1  0  0  0  0
  9 10  1  0  0  0  0
 11 12  1  0  0  0  0
 11  9  2  0  0  0  0
 13 11  1  0  0  0  0
 14 13  1  0  0  0  0
 15 13  2  0  0  0  0
 15  6  1  0  0  0  0
 16 15  1  0  0  0  0
 17 16  1  0  0  0  0
 18 16  2  0  0  0  0
 19 18  1  0  0  0  0
 19 20  1  0  0  0  0
 20  3  1  0  0  0  0
 20  4  1  0  0  0  0
 21 20  1  0  0  0  0
 21 23  1  0  0  0  0
 22 21  1  0  0  0  0
 24 21  1  0  0  0  0
M  CHG  1   5  -1
M  END
