2,5
 OpenBabel05122313063D

 39 42  0  0  0  0  0  0  0  0999 V2000
    8.0835   -0.2620    1.3754 Cl  0  0  0  0  0  0  0  0  0  0  0  0
   -1.2357   -1.1887   -0.7183 O   0  5  0  0  0  0  0  0  0  0  0  0
    4.5142   -4.2487   -1.0675 N   0  0  0  0  0  0  0  0  0  0  0  0
    4.6524   -5.1841   -1.4464 H   0  0  0  0  0  0  0  0  0  0  0  0
    1.2167   -1.3585   -0.3906 N   0  0  0  0  0  2  0  0  0  0  0  0
    0.6544   -2.4927   -0.9380 N   0  0  0  0  0  0  0  0  0  0  0  0
   -2.9663   -5.1528    1.4078 N   0  0  0  0  0  0  0  0  0  0  0  0
   -2.9251   -5.8048    2.1880 H   0  0  0  0  0  0  0  0  0  0  0  0
    4.9042   -2.2258   -0.1267 C   0  0  0  0  0  0  0  0  0  0  0  0
    5.6970   -1.2216    0.4637 C   0  0  0  0  0  0  0  0  0  0  0  0
    5.2649   -0.2631    0.7804 H   0  0  0  0  0  0  0  0  0  0  0  0
    7.0622   -1.4765    0.6291 C   0  0  0  0  0  0  0  0  0  0  0  0
    7.6625   -2.6920    0.2203 C   0  0  0  0  0  0  0  0  0  0  0  0
    8.7408   -2.8344    0.3738 H   0  0  0  0  0  0  0  0  0  0  0  0
    6.8881   -3.6958   -0.3695 C   0  0  0  0  0  0  0  0  0  0  0  0
    7.3484   -4.6428   -0.6883 H   0  0  0  0  0  0  0  0  0  0  0  0
    5.5157   -3.4519   -0.5344 C   0  0  0  0  0  0  0  0  0  0  0  0
    3.3075   -3.5976   -1.0147 C   0  0  0  0  0  0  0  0  0  0  0  0
    2.3731   -4.0350   -1.3765 H   0  0  0  0  0  0  0  0  0  0  0  0
    3.4863   -2.3302   -0.4393 C   0  0  0  0  0  0  0  0  0  0  0  0
    2.5139   -1.3068   -0.1759 C   0  0  0  0  0  3  0  0  0  0  0  0
    2.8528   -0.3540    0.2608 H   0  0  0  0  0  0  0  0  0  0  0  0
   -0.6480   -2.2993   -1.0602 C   0  0  0  0  0  0  0  0  0  0  0  0
   -1.5170   -3.4313   -1.5579 C   0  0  0  0  0  0  0  0  0  0  0  0
   -2.1728   -3.0444   -2.3645 H   0  0  0  0  0  0  0  0  0  0  0  0
   -0.8578   -4.2052   -1.9934 H   0  0  0  0  0  0  0  0  0  0  0  0
   -2.3548   -3.9954   -0.4421 C   0  0  0  0  0  0  0  0  0  0  0  0
   -1.9498   -4.9349    0.4947 C   0  0  0  0  0  0  0  0  0  0  0  0
   -0.9921   -5.4612    0.5811 H   0  0  0  0  0  0  0  0  0  0  0  0
   -3.6948   -3.6038   -0.0760 C   0  0  0  0  0  0  0  0  0  0  0  0
   -4.6377   -2.7008   -0.6171 C   0  0  0  0  0  0  0  0  0  0  0  0
   -4.3860   -2.1055   -1.5088 H   0  0  0  0  0  0  0  0  0  0  0  0
   -5.8896   -2.5774   -0.0068 C   0  0  0  0  0  0  0  0  0  0  0  0
   -6.6351   -1.8827   -0.4214 H   0  0  0  0  0  0  0  0  0  0  0  0
   -6.2182   -3.3337    1.1461 C   0  0  0  0  0  0  0  0  0  0  0  0
   -7.2101   -3.2095    1.6060 H   0  0  0  0  0  0  0  0  0  0  0  0
   -5.3072   -4.2331    1.7099 C   0  0  0  0  0  0  0  0  0  0  0  0
   -5.5646   -4.8194    2.6052 H   0  0  0  0  0  0  0  0  0  0  0  0
   -4.0514   -4.3588    1.0903 C   0  0  0  0  0  0  0  0  0  0  0  0
  3 18  1  0  0  0  0
  3 17  1  0  0  0  0
  4  3  1  0  0  0  0
  5 21  1  0  0  0  0
  6  5  1  0  0  0  0
  7  8  1  0  0  0  0
  9 10  1  0  0  0  0
 10 12  2  0  0  0  0
 10 11  1  0  0  0  0
 12  1  1  0  0  0  0
 13 14  1  0  0  0  0
 13 12  1  0  0  0  0
 15 13  2  0  0  0  0
 16 15  1  0  0  0  0
 17 15  1  0  0  0  0
 17  9  2  0  0  0  0
 18 20  2  0  0  0  0
 19 18  1  0  0  0  0
 20 21  1  0  0  0  0
 20  9  1  0  0  0  0
 21 22  1  0  0  0  0
 23  6  2  0  0  0  0
 23  2  1  0  0  0  0
 24 23  1  0  0  0  0
 24 27  1  0  0  0  0
 25 24  1  0  0  0  0
 26 24  1  0  0  0  0
 27 30  1  0  0  0  0
 27 28  2  0  0  0  0
 28 29  1  0  0  0  0
 28  7  1  0  0  0  0
 30 39  1  0  0  0  0
 31 30  2  0  0  0  0
 31 33  1  0  0  0  0
 32 31  1  0  0  0  0
 33 35  2  0  0  0  0
 34 33  1  0  0  0  0
 35 36  1  0  0  0  0
 35 37  1  0  0  0  0
 37 38  1  0  0  0  0
 39  7  1  0  0  0  0
 39 37  2  0  0  0  0
M  CHG  1   2  -1
M  END
