1,2
 OpenBabel05122313063D

 39 39  0  0  1  0  0  0  0  0999 V2000
    1.0310    1.6086   -0.6097 O   0  5  0  0  0  0  0  0  0  0  0  0
   -1.2334    1.4526    0.6015 N   0  0  0  0  0  2  0  0  0  0  0  0
    0.4655    2.7590   -0.3625 C   0  0  0  0  0  0  0  0  0  0  0  0
   -0.8563    2.7062    0.3025 C   0  0  1  0  0  3  0  0  0  0  0  0
   -1.6676    3.8505    0.5942 C   0  0  0  0  0  0  0  0  0  0  0  0
   -1.4289    5.2091    0.4109 C   0  0  0  0  0  0  0  0  0  0  0  0
   -0.3112    5.8756   -0.1360 C   0  0  0  0  0  0  0  0  0  0  0  0
    0.8427    5.2783   -0.6490 C   0  0  0  0  0  0  0  0  0  0  0  0
    1.1744    3.9181   -0.7503 C   0  0  0  0  0  0  0  0  0  0  0  0
   -2.5060    1.1240    1.2170 C   0  0  0  0  0  0  0  0  0  0  0  0
   -3.6436    0.9835    0.1950 C   0  0  0  0  0  0  0  0  0  0  0  0
   -4.9681    0.5655    0.8354 C   0  0  0  0  0  0  0  0  0  0  0  0
   -6.1084    0.3950   -0.1716 C   0  0  0  0  0  0  0  0  0  0  0  0
   -7.4353   -0.0309    0.4618 C   0  0  0  0  0  0  0  0  0  0  0  0
   -8.5760   -0.2031   -0.5444 C   0  0  0  0  0  0  0  0  0  0  0  0
   -9.9041   -0.6304    0.0878 C   0  0  0  0  0  0  0  0  0  0  0  0
  -11.0365   -0.7997   -0.9256 C   0  0  0  0  0  0  0  0  0  0  0  0
   -2.6442    3.6143    1.0405 H   0  0  0  0  0  0  0  0  0  0  0  0
   -2.2494    5.8656    0.7465 H   0  0  0  0  0  0  0  0  0  0  0  0
   -0.3598    6.9749   -0.1666 H   0  0  0  0  0  0  0  0  0  0  0  0
    1.6085    5.9692   -1.0394 H   0  0  0  0  0  0  0  0  0  0  0  0
    2.1468    3.6752   -1.2077 H   0  0  0  0  0  0  0  0  0  0  0  0
   -2.7729    1.8733    1.9965 H   0  0  0  0  0  0  0  0  0  0  0  0
   -2.3761    0.1543    1.7387 H   0  0  0  0  0  0  0  0  0  0  0  0
   -3.7719    1.9414   -0.3558 H   0  0  0  0  0  0  0  0  0  0  0  0
   -3.3329    0.2305   -0.5608 H   0  0  0  0  0  0  0  0  0  0  0  0
   -5.2654    1.3153    1.6038 H   0  0  0  0  0  0  0  0  0  0  0  0
   -4.8209   -0.3887    1.3901 H   0  0  0  0  0  0  0  0  0  0  0  0
   -5.8090   -0.3533   -0.9397 H   0  0  0  0  0  0  0  0  0  0  0  0
   -6.2545    1.3490   -0.7273 H   0  0  0  0  0  0  0  0  0  0  0  0
   -7.7331    0.7175    1.2312 H   0  0  0  0  0  0  0  0  0  0  0  0
   -7.2876   -0.9848    1.0174 H   0  0  0  0  0  0  0  0  0  0  0  0
   -8.2778   -0.9512   -1.3140 H   0  0  0  0  0  0  0  0  0  0  0  0
   -8.7237    0.7509   -1.1003 H   0  0  0  0  0  0  0  0  0  0  0  0
  -10.1982    0.1183    0.8571 H   0  0  0  0  0  0  0  0  0  0  0  0
   -9.7525   -1.5829    0.6432 H   0  0  0  0  0  0  0  0  0  0  0  0
  -11.9833   -1.1091   -0.4387 H   0  0  0  0  0  0  0  0  0  0  0  0
  -10.7850   -1.5684   -1.6861 H   0  0  0  0  0  0  0  0  0  0  0  0
  -11.2347    0.1472   -1.4704 H   0  0  0  0  0  0  0  0  0  0  0  0
  1  3  1  0  0  0  0
  2 10  1  0  0  0  0
  3  4  1  0  0  0  0
  4  5  1  0  0  0  0
  4  2  1  6  0  0  0
  5 18  1  0  0  0  0
  6  5  2  0  0  0  0
  6 19  1  0  0  0  0
  7  6  1  0  0  0  0
  8  7  2  0  0  0  0
  9  8  1  0  0  0  0
  9  3  2  0  0  0  0
 10 24  1  0  0  0  0
 10 23  1  0  0  0  0
 11 12  1  0  0  0  0
 11 10  1  0  0  0  0
 12 28  1  0  0  0  0
 12 27  1  0  0  0  0
 13 14  1  0  0  0  0
 13 12  1  0  0  0  0
 14 32  1  0  0  0  0
 14 31  1  0  0  0  0
 15 16  1  0  0  0  0
 15 14  1  0  0  0  0
 16 36  1  0  0  0  0
 16 35  1  0  0  0  0
 17 37  1  0  0  0  0
 17 16  1  0  0  0  0
 20  7  1  0  0  0  0
 21  8  1  0  0  0  0
 22  9  1  0  0  0  0
 25 11  1  0  0  0  0
 26 11  1  0  0  0  0
 29 13  1  0  0  0  0
 30 13  1  0  0  0  0
 33 15  1  0  0  0  0
 34 15  1  0  0  0  0
 38 17  1  0  0  0  0
 39 17  1  0  0  0  0
M  CHG  1   1  -1
M  END
