2,27
 OpenBabel05122313063D

 35 36  0  0  0  0  0  0  0  0999 V2000
    6.3863   -2.6138   -0.0921 O   0  0  0  0  0  0  0  0  0  0  0  0
    0.8289   -1.8537   -0.0807 N   0  0  0  0  0  2  0  0  0  0  0  0
    5.0443   -2.3948   -0.0250 C   0  0  0  0  0  0  0  0  0  0  0  0
    7.1792   -2.2626    1.0250 C   0  0  0  0  0  0  0  0  0  0  0  0
    7.1081   -1.1762    1.2588 H   0  0  0  0  0  0  0  0  0  0  0  0
    8.2244   -2.5047    0.7567 H   0  0  0  0  0  0  0  0  0  0  0  0
    6.8979   -2.8402    1.9345 H   0  0  0  0  0  0  0  0  0  0  0  0
    2.2480   -2.0049   -0.0859 C   0  0  0  0  0  0  0  0  0  0  0  0
   -1.3125   -3.0911   -0.0911 C   0  0  0  0  0  0  0  0  0  0  0  0
    0.1065   -2.9482   -0.1904 C   0  0  0  0  0  0  0  0  0  0  0  0
    0.6713   -3.8926   -0.3201 H   0  0  0  0  0  0  0  0  0  0  0  0
   -3.7598   -6.0753   -0.2263 C   0  0  0  0  0  0  0  0  0  0  0  0
   -2.9728   -6.8075   -0.4928 H   0  0  0  0  0  0  0  0  0  0  0  0
   -4.5277   -6.1011   -1.0289 H   0  0  0  0  0  0  0  0  0  0  0  0
   -4.2561   -6.4350    0.7000 H   0  0  0  0  0  0  0  0  0  0  0  0
    2.9887   -1.6665    1.0580 C   0  0  0  0  0  0  0  0  0  0  0  0
    2.4627   -1.2456    1.9269 H   0  0  0  0  0  0  0  0  0  0  0  0
    2.9209   -2.5212   -1.2115 C   0  0  0  0  0  0  0  0  0  0  0  0
    2.3467   -2.7576   -2.1197 H   0  0  0  0  0  0  0  0  0  0  0  0
    4.3034   -2.7154   -1.1827 C   0  0  0  0  0  0  0  0  0  0  0  0
    4.8433   -3.1104   -2.0552 H   0  0  0  0  0  0  0  0  0  0  0  0
   -1.8468   -4.4074   -0.2469 C   0  0  0  0  0  3  0  0  0  0  0  0
   -1.1529   -5.2181   -0.5244 H   0  0  0  0  0  0  0  0  0  0  0  0
    4.3752   -1.8666    1.1004 C   0  0  0  0  0  0  0  0  0  0  0  0
    4.9248   -1.6008    2.0128 H   0  0  0  0  0  0  0  0  0  0  0  0
   -3.1907   -4.6906   -0.0486 C   0  0  0  0  0  0  0  0  0  0  0  0
   -1.8212   -0.7580    0.3915 O   0  5  0  0  0  0  0  0  0  0  0  0
   -3.5726   -2.3090    0.5278 C   0  0  0  0  0  0  0  0  0  0  0  0
   -2.1866   -2.0029    0.2646 C   0  0  0  0  0  0  0  0  0  0  0  0
   -4.0288   -3.6119    0.3551 C   0  0  0  0  0  0  0  0  0  0  0  0
   -5.0958   -3.8165    0.5495 H   0  0  0  0  0  0  0  0  0  0  0  0
   -4.4709   -1.1941    0.9794 C   0  0  0  0  0  0  0  0  0  0  0  0
   -5.4928   -1.5605    1.1956 H   0  0  0  0  0  0  0  0  0  0  0  0
   -4.5304   -0.3926    0.2159 H   0  0  0  0  0  0  0  0  0  0  0  0
   -4.0665   -0.7011    1.8877 H   0  0  0  0  0  0  0  0  0  0  0  0
  1  3  1  0  0  0  0
  1  4  1  0  0  0  0
  3 24  1  0  0  0  0
  4  5  1  0  0  0  0
  4  7  1  0  0  0  0
  6  4  1  0  0  0  0
  8  2  1  0  0  0  0
  8 16  1  0  0  0  0
  9 29  1  0  0  0  0
 10  9  2  0  0  0  0
 10  2  1  0  0  0  0
 11 10  1  0  0  0  0
 12 26  1  0  0  0  0
 12 15  1  0  0  0  0
 13 12  1  0  0  0  0
 14 12  1  0  0  0  0
 16 24  2  0  0  0  0
 16 17  1  0  0  0  0
 18 20  1  0  0  0  0
 18  8  2  0  0  0  0
 19 18  1  0  0  0  0
 20  3  2  0  0  0  0
 21 20  1  0  0  0  0
 22  9  1  0  0  0  0
 22 26  1  0  0  0  0
 23 22  1  0  0  0  0
 24 25  1  0  0  0  0
 26 30  2  0  0  0  0
 28 32  1  0  0  0  0
 29 27  1  0  0  0  0
 29 28  2  0  0  0  0
 30 28  1  0  0  0  0
 30 31  1  0  0  0  0
 32 33  1  0  0  0  0
 32 35  1  0  0  0  0
 34 32  1  0  0  0  0
M  CHG  1  27  -1
M  END
