1,5
 OpenBabel05122313063D

 20 21  0  0  0  0  0  0  0  0999 V2000
   -1.1459   -0.1948    1.0107 O   0  5  0  0  0  0  0  0  0  0  0  0
   -2.0025    1.2805    3.2816 O   0  0  0  0  0  0  0  0  0  0  0  0
   -4.0609    2.1878    3.1039 O   0  0  0  0  0  0  0  0  0  0  0  0
   -3.8199    2.3661    4.0379 H   0  0  0  0  0  0  0  0  0  0  0  0
   -1.4564   -0.7278   -1.4474 N   0  0  0  0  0  2  0  0  0  0  0  0
   -1.5587   -1.0572   -2.7467 C   0  0  0  0  0  0  0  0  0  0  0  0
   -0.7549   -1.6908   -3.1483 H   0  0  0  0  0  0  0  0  0  0  0  0
   -2.6323   -0.6056   -3.5423 C   0  0  0  0  0  0  0  0  0  0  0  0
   -2.6657   -0.9077   -4.5988 H   0  0  0  0  0  0  0  0  0  0  0  0
   -3.6252    0.2009   -2.9957 C   0  0  0  0  0  0  0  0  0  0  0  0
   -4.4682    0.5579   -3.6060 H   0  0  0  0  0  0  0  0  0  0  0  0
   -3.5459    0.5593   -1.6216 C   0  0  0  0  0  0  0  0  0  0  0  0
   -4.4803    1.3747   -0.9170 C   0  0  0  0  0  3  0  0  0  0  0  0
   -5.3546    1.7741   -1.4511 H   0  0  0  0  0  0  0  0  0  0  0  0
   -4.2860    1.6531    0.4266 C   0  0  0  0  0  0  0  0  0  0  0  0
   -5.0119    2.2764    0.9660 H   0  0  0  0  0  0  0  0  0  0  0  0
   -3.1645    1.1695    1.1675 C   0  0  0  0  0  0  0  0  0  0  0  0
   -2.2249    0.3507    0.4975 C   0  0  0  0  0  0  0  0  0  0  0  0
   -2.4322    0.0543   -0.8899 C   0  0  0  0  0  0  0  0  0  0  0  0
   -2.9842    1.5217    2.5939 C   0  0  0  0  0  0  0  0  0  0  0  0
  3  4  1  0  0  0  0
  5 19  1  0  0  0  0
  6  5  1  0  0  0  0
  7  6  1  0  0  0  0
  8 10  1  0  0  0  0
  8  6  2  0  0  0  0
  9  8  1  0  0  0  0
 10 12  2  0  0  0  0
 11 10  1  0  0  0  0
 12 13  1  0  0  0  0
 12 19  1  0  0  0  0
 13 15  1  0  0  0  0
 14 13  1  0  0  0  0
 15 16  1  0  0  0  0
 15 17  2  0  0  0  0
 17 20  1  0  0  0  0
 18  1  1  0  0  0  0
 18 17  1  0  0  0  0
 19 18  2  0  0  0  0
 20  3  1  0  0  0  0
 20  2  2  0  0  0  0
M  CHG  1   1  -1
M  END
