1,4
 OpenBabel05122313063D

 40 41  0  0  0  0  0  0  0  0999 V2000
   -1.8498   -0.7550   -0.3109 O   0  5  0  0  0  0  0  0  0  0  0  0
   -5.3236   -3.7009   -0.3452 O   0  0  0  0  0  0  0  0  0  0  0  0
   -1.1464   -5.4206    0.4791 O   0  0  0  0  0  0  0  0  0  0  0  0
    0.8199   -1.8590   -0.0275 N   0  0  0  0  0  2  0  0  0  0  0  0
   -3.2470   -4.5568    0.0991 N   0  0  0  0  0  0  0  0  0  0  0  0
   -3.5424   -2.2360   -0.3434 N   0  0  0  0  0  0  0  0  0  0  0  0
    2.2355   -2.0117   -0.1220 C   0  0  0  0  0  0  0  0  0  0  0  0
    2.8892   -1.7215   -1.3329 C   0  0  0  0  0  0  0  0  0  0  0  0
    2.2980   -1.3558   -2.1852 H   0  0  0  0  0  0  0  0  0  0  0  0
    4.2727   -1.9114   -1.4443 C   0  0  0  0  0  0  0  0  0  0  0  0
    4.7729   -1.6927   -2.4012 H   0  0  0  0  0  0  0  0  0  0  0  0
    5.0417   -2.3766   -0.3578 C   0  0  0  0  0  0  0  0  0  0  0  0
    4.3714   -2.6482    0.8532 C   0  0  0  0  0  0  0  0  0  0  0  0
    4.9402   -3.0078    1.7249 H   0  0  0  0  0  0  0  0  0  0  0  0
    2.9876   -2.4684    0.9759 C   0  0  0  0  0  0  0  0  0  0  0  0
    2.4756   -2.6775    1.9269 H   0  0  0  0  0  0  0  0  0  0  0  0
    6.5470   -2.5592   -0.4859 C   0  0  0  0  0  0  0  0  0  0  0  0
    6.8103   -2.3138   -1.5379 H   0  0  0  0  0  0  0  0  0  0  0  0
    6.9706   -4.0146   -0.2271 C   0  0  0  0  0  0  0  0  0  0  0  0
    6.4384   -4.7161   -0.9000 H   0  0  0  0  0  0  0  0  0  0  0  0
    6.7510   -4.3188    0.8173 H   0  0  0  0  0  0  0  0  0  0  0  0
    8.0608   -4.1411   -0.3876 H   0  0  0  0  0  0  0  0  0  0  0  0
    7.3114   -1.5817    0.4241 C   0  0  0  0  0  0  0  0  0  0  0  0
    7.0360   -0.5296    0.2108 H   0  0  0  0  0  0  0  0  0  0  0  0
    8.4067   -1.6852    0.2831 H   0  0  0  0  0  0  0  0  0  0  0  0
    7.0924   -1.7763    1.4947 H   0  0  0  0  0  0  0  0  0  0  0  0
    0.0934   -2.9527    0.0939 C   0  0  0  0  0  3  0  0  0  0  0  0
    0.6247   -3.9205    0.1754 H   0  0  0  0  0  0  0  0  0  0  0  0
   -1.3180   -3.0732    0.0861 C   0  0  0  0  0  0  0  0  0  0  0  0
   -1.8419   -4.4324    0.2435 C   0  0  0  0  0  0  0  0  0  0  0  0
   -4.1204   -3.5186   -0.2069 C   0  0  0  0  0  0  0  0  0  0  0  0
   -2.1912   -1.9831   -0.1795 C   0  0  0  0  0  0  0  0  0  0  0  0
   -4.4284   -1.1208   -0.6768 C   0  0  0  0  0  0  0  0  0  0  0  0
   -4.3734   -0.3387    0.1021 H   0  0  0  0  0  0  0  0  0  0  0  0
   -5.4505   -1.5280   -0.7487 H   0  0  0  0  0  0  0  0  0  0  0  0
   -4.1248   -0.6637   -1.6380 H   0  0  0  0  0  0  0  0  0  0  0  0
   -3.8507   -5.8782    0.2498 C   0  0  0  0  0  0  0  0  0  0  0  0
   -3.0325   -6.5801    0.4849 H   0  0  0  0  0  0  0  0  0  0  0  0
   -4.3630   -6.1761   -0.6854 H   0  0  0  0  0  0  0  0  0  0  0  0
   -4.6032   -5.8657    1.0618 H   0  0  0  0  0  0  0  0  0  0  0  0
  1 32  1  0  0  0  0
  2 31  2  0  0  0  0
  4 27  1  0  0  0  0
  5 30  1  0  0  0  0
  5 37  1  0  0  0  0
  6 31  1  0  0  0  0
  6 32  1  0  0  0  0
  7  4  1  0  0  0  0
  7 15  1  0  0  0  0
  8  7  2  0  0  0  0
  9  8  1  0  0  0  0
 10  8  1  0  0  0  0
 10 12  2  0  0  0  0
 11 10  1  0  0  0  0
 12 13  1  0  0  0  0
 13 15  2  0  0  0  0
 13 14  1  0  0  0  0
 15 16  1  0  0  0  0
 17 12  1  0  0  0  0
 17 19  1  0  0  0  0
 17 23  1  0  0  0  0
 18 17  1  0  0  0  0
 19 21  1  0  0  0  0
 20 19  1  0  0  0  0
 22 19  1  0  0  0  0
 23 26  1  0  0  0  0
 24 23  1  0  0  0  0
 25 23  1  0  0  0  0
 27 28  1  0  0  0  0
 29 27  1  0  0  0  0
 29 30  1  0  0  0  0
 30  3  2  0  0  0  0
 31  5  1  0  0  0  0
 32 29  2  0  0  0  0
 33  6  1  0  0  0  0
 33 34  1  0  0  0  0
 35 33  1  0  0  0  0
 36 33  1  0  0  0  0
 37 38  1  0  0  0  0
 37 40  1  0  0  0  0
 39 37  1  0  0  0  0
M  CHG  1   1  -1
M  END
