1,2
 OpenBabel05122313063D

 30 30  0  0  0  0  0  0  0  0999 V2000
   -1.4234    1.2061   -0.4291 N   0  0  0  0  0  2  0  0  0  0  0  0
   -0.2972   -1.4591    0.1062 O   0  5  0  0  0  0  0  0  0  0  0  0
   -1.5504   -1.8295    0.0316 C   0  0  0  0  0  0  0  0  0  0  0  0
   -2.6526   -0.9454   -0.2340 C   0  0  0  0  0  0  0  0  0  0  0  0
   -3.9735   -1.4831   -0.2935 C   0  0  0  0  0  3  0  0  0  0  0  0
   -4.8025   -0.7846   -0.4966 H   0  0  0  0  0  0  0  0  0  0  0  0
   -4.2525   -2.8328   -0.1041 C   0  0  0  0  0  0  0  0  0  0  0  0
   -3.1477   -3.6905    0.1620 C   0  0  0  0  0  0  0  0  0  0  0  0
   -3.3310   -4.7665    0.3178 H   0  0  0  0  0  0  0  0  0  0  0  0
   -1.8471   -3.2125    0.2292 C   0  0  0  0  0  0  0  0  0  0  0  0
   -1.0000   -3.8842    0.4311 H   0  0  0  0  0  0  0  0  0  0  0  0
   -2.5117    0.4695   -0.4205 C   0  0  0  0  0  0  0  0  0  0  0  0
   -3.4623    1.0166   -0.5713 H   0  0  0  0  0  0  0  0  0  0  0  0
   -1.6077    2.6595   -0.5434 C   0  0  0  0  0  0  0  0  0  0  0  0
   -2.6149    2.8571   -0.9737 H   0  0  0  0  0  0  0  0  0  0  0  0
   -0.8405    3.0466   -1.2398 H   0  0  0  0  0  0  0  0  0  0  0  0
   -1.4722    3.3941    0.8050 C   0  0  0  0  0  0  0  0  0  0  0  0
   -0.4718    3.1250    1.2062 H   0  0  0  0  0  0  0  0  0  0  0  0
   -2.5437    2.9652    1.8105 C   0  0  0  0  0  0  0  0  0  0  0  0
   -3.5648    3.2019    1.4392 H   0  0  0  0  0  0  0  0  0  0  0  0
   -2.4113    3.4940    2.7762 H   0  0  0  0  0  0  0  0  0  0  0  0
   -2.5013    1.8775    2.0207 H   0  0  0  0  0  0  0  0  0  0  0  0
   -1.4869    4.9052    0.5532 C   0  0  0  0  0  0  0  0  0  0  0  0
   -2.4411    5.2299    0.0844 H   0  0  0  0  0  0  0  0  0  0  0  0
   -0.6549    5.2019   -0.1168 H   0  0  0  0  0  0  0  0  0  0  0  0
   -1.3748    5.4668    1.5025 H   0  0  0  0  0  0  0  0  0  0  0  0
   -5.6547   -3.3827   -0.1726 C   0  0  0  0  0  0  0  0  0  0  0  0
   -5.9473   -3.8749    0.7792 H   0  0  0  0  0  0  0  0  0  0  0  0
   -5.7539   -4.1486   -0.9711 H   0  0  0  0  0  0  0  0  0  0  0  0
   -6.3948   -2.5854   -0.3794 H   0  0  0  0  0  0  0  0  0  0  0  0
  1 12  1  0  0  0  0
  3  2  1  0  0  0  0
  3 10  2  0  0  0  0
  4  3  1  0  0  0  0
  5  4  1  0  0  0  0
  5  7  1  0  0  0  0
  6  5  1  0  0  0  0
  7  8  2  0  0  0  0
  8 10  1  0  0  0  0
  8  9  1  0  0  0  0
 10 11  1  0  0  0  0
 12  4  2  0  0  0  0
 13 12  1  0  0  0  0
 14  1  1  0  0  0  0
 14 17  1  0  0  0  0
 15 14  1  0  0  0  0
 16 14  1  0  0  0  0
 17 18  1  0  0  0  0
 17 19  1  0  0  0  0
 19 22  1  0  0  0  0
 19 21  1  0  0  0  0
 20 19  1  0  0  0  0
 23 17  1  0  0  0  0
 23 26  1  0  0  0  0
 24 23  1  0  0  0  0
 25 23  1  0  0  0  0
 27  7  1  0  0  0  0
 27 28  1  0  0  0  0
 29 27  1  0  0  0  0
 30 27  1  0  0  0  0
M  CHG  1   2  -1
M  END
