1,2
 OpenBabel05122313063D

 45 46  0  0  1  0  0  0  0  0999 V2000
    0.7426   -1.8328   -0.3710 O   0  0  0  0  0  1  0  0  0  0  0  0
    1.1724    0.9311    0.0957 N   0  0  0  0  0  2  0  0  0  0  0  0
    6.3085   -2.4326   -0.3257 N   0  0  0  0  0  0  0  0  0  0  0  0
    6.7473   -3.5706   -0.5216 O   0  0  0  0  0  0  0  0  0  0  0  0
    0.9604    3.3643   -0.2654 C   0  0  0  0  0  0  0  0  0  0  0  0
    2.0311   -1.9267   -0.3587 C   0  0  2  0  0  3  0  0  0  0  0  0
    0.6824    4.6309    0.2807 C   0  0  0  0  0  0  0  0  0  0  0  0
    0.7070    5.5155   -0.3720 H   0  0  0  0  0  0  0  0  0  0  0  0
    0.3001    3.6607    2.4724 C   0  0  0  0  0  0  0  0  0  0  0  0
    0.0299    3.7868    3.5314 H   0  0  0  0  0  0  0  0  0  0  0  0
    2.6414   -3.2122   -0.5610 C   0  0  0  0  0  0  0  0  0  0  0  0
    1.9661   -4.0645   -0.7256 H   0  0  0  0  0  0  0  0  0  0  0  0
    4.0146   -3.3776   -0.5601 C   0  0  0  0  0  0  0  0  0  0  0  0
    4.4853   -4.3567   -0.7228 H   0  0  0  0  0  0  0  0  0  0  0  0
    0.5646    2.3720    1.9743 C   0  0  0  0  0  0  0  0  0  0  0  0
    0.4740    1.1353    2.8630 C   0  0  0  0  0  0  0  0  0  0  0  0
    0.2903    0.2736    2.1821 H   0  0  0  0  0  0  0  0  0  0  0  0
   -0.6921    1.1857    3.8597 C   0  0  0  0  0  0  0  0  0  0  0  0
   -0.5452    1.9643    4.6362 H   0  0  0  0  0  0  0  0  0  0  0  0
   -0.7867    0.2156    4.3891 H   0  0  0  0  0  0  0  0  0  0  0  0
   -1.6568    1.3935    3.3539 H   0  0  0  0  0  0  0  0  0  0  0  0
    2.9154   -0.7969   -0.1348 C   0  0  0  0  0  0  0  0  0  0  0  0
    7.0080   -1.4351   -0.1205 O   0  0  0  0  0  0  0  0  0  0  0  0
    0.9172    2.2495    0.6056 C   0  0  0  0  0  0  0  0  0  0  0  0
    2.4195    0.5192    0.1547 C   0  0  0  0  0  0  0  0  0  0  0  0
    3.1772    1.2534    0.4947 H   0  0  0  0  0  0  0  0  0  0  0  0
    4.8532   -2.2570   -0.3381 C   0  0  0  0  0  0  0  0  0  0  0  0
    4.3158   -0.9937   -0.1200 C   0  0  0  0  0  0  0  0  0  0  0  0
    5.0031   -0.1543    0.0604 H   0  0  0  0  0  0  0  0  0  0  0  0
    1.2993    3.1830   -1.7391 C   0  0  0  0  0  0  0  0  0  0  0  0
    0.9820    2.1513   -2.0040 H   0  0  0  0  0  0  0  0  0  0  0  0
    0.3637    4.7826    1.6361 C   0  0  0  0  0  0  0  0  0  0  0  0
    0.1516    5.7834    2.0419 H   0  0  0  0  0  0  0  0  0  0  0  0
    1.8052    0.8731    3.5900 C   0  0  0  0  0  0  0  0  0  0  0  0
    2.0590    1.7206    4.2601 H   0  0  0  0  0  0  0  0  0  0  0  0
    2.6446    0.7480    2.8781 H   0  0  0  0  0  0  0  0  0  0  0  0
    1.7454   -0.0471    4.2070 H   0  0  0  0  0  0  0  0  0  0  0  0
    2.8168    3.2885   -1.9827 C   0  0  0  0  0  0  0  0  0  0  0  0
    3.1909    4.2908   -1.6874 H   0  0  0  0  0  0  0  0  0  0  0  0
    3.0534    3.1380   -3.0560 H   0  0  0  0  0  0  0  0  0  0  0  0
    3.3878    2.5363   -1.4043 H   0  0  0  0  0  0  0  0  0  0  0  0
    0.5388    4.1523   -2.6535 C   0  0  0  0  0  0  0  0  0  0  0  0
   -0.5491    4.1277   -2.4512 H   0  0  0  0  0  0  0  0  0  0  0  0
    0.6983    3.8783   -3.7161 H   0  0  0  0  0  0  0  0  0  0  0  0
    0.8935    5.1971   -2.5329 H   0  0  0  0  0  0  0  0  0  0  0  0
  2 25  1  0  0  0  0
  2 24  1  0  0  0  0
  3 23  2  0  0  0  0
  4  3  2  0  0  0  0
  5  7  2  0  0  0  0
  5 24  1  0  0  0  0
  6  1  1  1  0  0  0
  6 22  1  0  0  0  0
  7 32  1  0  0  0  0
  8  7  1  0  0  0  0
  9 10  1  0  0  0  0
 11 13  2  0  0  0  0
 11  6  1  0  0  0  0
 12 11  1  0  0  0  0
 13 27  1  0  0  0  0
 14 13  1  0  0  0  0
 15  9  1  0  0  0  0
 15 16  1  0  0  0  0
 16 34  1  0  0  0  0
 16 18  1  0  0  0  0
 17 16  1  0  0  0  0
 18 20  1  0  0  0  0
 18 19  1  0  0  0  0
 21 18  1  0  0  0  0
 22 28  1  0  0  0  0
 22 25  2  0  0  0  0
 24 15  2  0  0  0  0
 25 26  1  0  0  0  0
 27  3  1  0  0  0  0
 27 28  2  0  0  0  0
 28 29  1  0  0  0  0
 30  5  1  0  0  0  0
 31 30  1  0  0  0  0
 32 33  1  0  0  0  0
 32  9  2  0  0  0  0
 34 37  1  0  0  0  0
 34 35  1  0  0  0  0
 36 34  1  0  0  0  0
 38 30  1  0  0  0  0
 38 39  1  0  0  0  0
 38 41  1  0  0  0  0
 40 38  1  0  0  0  0
 42 45  1  0  0  0  0
 42 43  1  0  0  0  0
 42 30  1  0  0  0  0
 44 42  1  0  0  0  0
M  END
