1,4
 OpenBabel05122313063D

 15 15  0  0  1  0  0  0  0  0999 V2000
    1.7963   -0.1368   -0.4082 N   0  0  0  0  0  2  0  0  0  0  0  0
    2.5715    0.9262   -0.7262 N   0  0  0  0  0  0  0  0  0  0  0  0
    2.0311    1.7863   -0.9004 H   0  0  0  0  0  0  0  0  0  0  0  0
    0.0555   -1.8639    0.1893 O   0  5  0  0  0  0  0  0  0  0  0  0
    1.5899   -3.5287    0.3637 O   0  0  0  0  0  0  0  0  0  0  0  0
    4.5218    2.0816   -0.4981 O   0  0  0  0  0  0  0  0  0  0  0  0
    1.2961   -2.3602    0.1677 C   0  0  0  0  0  0  0  0  0  0  0  0
    2.3210   -1.3080   -0.1552 C   0  0  2  0  0  3  0  0  0  0  0  0
    3.7981   -1.4954   -0.1772 C   0  0  0  0  0  0  0  0  0  0  0  0
    4.0550   -2.3897    0.4234 H   0  0  0  0  0  0  0  0  0  0  0  0
    4.1263   -1.7133   -1.2202 H   0  0  0  0  0  0  0  0  0  0  0  0
    4.4605   -0.2120    0.3447 C   0  0  0  0  0  0  0  0  0  0  0  0
    4.2284   -0.0795    1.4249 H   0  0  0  0  0  0  0  0  0  0  0  0
    5.5597   -0.2148    0.2325 H   0  0  0  0  0  0  0  0  0  0  0  0
    3.9193    1.0402   -0.3267 C   0  0  0  0  0  0  0  0  0  0  0  0
  1  8  1  0  0  0  0
  2  1  1  0  0  0  0
  2 15  1  0  0  0  0
  3  2  1  0  0  0  0
  6 15  2  0  0  0  0
  7  4  1  0  0  0  0
  7  5  2  0  0  0  0
  8  7  1  1  0  0  0
  9  8  1  0  0  0  0
  9 12  1  0  0  0  0
  9 10  1  0  0  0  0
 11  9  1  0  0  0  0
 12 13  1  0  0  0  0
 14 12  1  0  0  0  0
 15 12  1  0  0  0  0
M  CHG  1   4  -1
M  END
