4,5
 OpenBabel05122313063D

 32 33  0  0  1  0  0  0  0  0999 V2000
    0.5575   -2.4165   -3.0536 F   0  0  0  0  0  0  0  0  0  0  0  0
   -0.1393   -3.9750   -1.6827 F   0  0  0  0  0  0  0  0  0  0  0  0
    1.9713   -3.8007   -2.1474 F   0  0  0  0  0  0  0  0  0  0  0  0
    1.8708   -0.2533    1.2455 O   0  5  0  0  0  0  0  0  0  0  0  0
   -0.0205   -1.4522   -0.2532 N   0  0  0  0  0  2  0  0  0  0  0  0
   -1.3397   -1.6705   -0.7633 C   0  0  0  0  0  0  0  0  0  0  0  0
   -1.7888   -0.9971   -1.9149 C   0  0  0  0  0  0  0  0  0  0  0  0
   -1.1062   -0.3346   -2.4629 H   0  0  0  0  0  0  0  0  0  0  0  0
   -3.1171   -1.1498   -2.3406 C   0  0  0  0  0  0  0  0  0  0  0  0
   -3.4595   -0.6124   -3.2380 H   0  0  0  0  0  0  0  0  0  0  0  0
   -4.0035   -1.9676   -1.6256 C   0  0  0  0  0  0  0  0  0  0  0  0
   -5.0473   -2.0755   -1.9558 H   0  0  0  0  0  0  0  0  0  0  0  0
   -3.5528   -2.6380   -0.4764 C   0  0  0  0  0  0  0  0  0  0  0  0
   -4.2431   -3.2742    0.0976 H   0  0  0  0  0  0  0  0  0  0  0  0
   -2.2313   -2.4898   -0.0405 C   0  0  0  0  0  0  0  0  0  0  0  0
   -1.8716   -2.9813    0.8738 H   0  0  0  0  0  0  0  0  0  0  0  0
    1.0302   -2.0939   -0.7402 C   0  0  2  0  0  3  0  0  0  0  0  0
    2.3763   -1.9084   -0.3267 C   0  0  0  0  0  0  0  0  0  0  0  0
    3.1422   -2.5094   -0.8231 H   0  0  0  0  0  0  0  0  0  0  0  0
    2.7635   -0.9589    0.6194 C   0  0  0  0  0  0  0  0  0  0  0  0
    4.1718   -0.6557    0.9582 C   0  0  0  0  0  0  0  0  0  0  0  0
    5.2629   -1.2217    0.2616 C   0  0  0  0  0  0  0  0  0  0  0  0
    5.0894   -1.9301   -0.5607 H   0  0  0  0  0  0  0  0  0  0  0  0
    6.5748   -0.8689    0.5966 C   0  0  0  0  0  0  0  0  0  0  0  0
    7.4171   -1.3114    0.0440 H   0  0  0  0  0  0  0  0  0  0  0  0
    6.8165    0.0516    1.6313 C   0  0  0  0  0  0  0  0  0  0  0  0
    7.8497    0.3275    1.8916 H   0  0  0  0  0  0  0  0  0  0  0  0
    5.7378    0.6175    2.3309 C   0  0  0  0  0  0  0  0  0  0  0  0
    5.9230    1.3371    3.1426 H   0  0  0  0  0  0  0  0  0  0  0  0
    4.4243    0.2693    1.9976 C   0  0  0  0  0  0  0  0  0  0  0  0
    3.5666    0.7090    2.5268 H   0  0  0  0  0  0  0  0  0  0  0  0
    0.8460   -3.0887   -1.9095 C   0  0  0  0  0  0  0  0  0  0  0  0
  1 32  1  0  0  0  0
  3 32  1  0  0  0  0
  6  5  1  0  0  0  0
  6 15  1  0  0  0  0
  7  6  2  0  0  0  0
  8  7  1  0  0  0  0
  9  7  1  0  0  0  0
  9 11  2  0  0  0  0
 10  9  1  0  0  0  0
 11 13  1  0  0  0  0
 12 11  1  0  0  0  0
 13 15  2  0  0  0  0
 13 14  1  0  0  0  0
 15 16  1  0  0  0  0
 17 18  1  6  0  0  0
 17  5  1  0  0  0  0
 18 20  2  0  0  0  0
 19 18  1  0  0  0  0
 20 21  1  0  0  0  0
 20  4  1  0  0  0  0
 21 30  1  0  0  0  0
 22 24  1  0  0  0  0
 22 21  2  0  0  0  0
 23 22  1  0  0  0  0
 24 26  2  0  0  0  0
 25 24  1  0  0  0  0
 26 27  1  0  0  0  0
 26 28  1  0  0  0  0
 28 29  1  0  0  0  0
 30 28  2  0  0  0  0
 30 31  1  0  0  0  0
 32  2  1  0  0  0  0
 32 17  1  0  0  0  0
M  CHG  1   4  -1
M  END
