21,22
 OpenBabel05122313063D

 23 24  0  0  0  0  0  0  0  0999 V2000
   -0.9882   -2.7464   -0.1482 C   0  0  0  0  0  0  0  0  0  0  0  0
   -2.2191   -1.8751   -0.0185 C   0  0  0  0  0  0  0  0  0  0  0  0
   -3.5793   -2.1796   -0.0124 C   0  0  0  0  0  0  0  0  0  0  0  0
   -4.2467   -3.5036   -0.1294 C   0  0  0  0  0  0  0  0  0  0  0  0
   -5.0931   -3.4800   -0.8443 H   0  0  0  0  0  0  0  0  0  0  0  0
   -3.4735   -4.2244   -0.4582 H   0  0  0  0  0  0  0  0  0  0  0  0
   -4.6348   -3.8597    0.8474 H   0  0  0  0  0  0  0  0  0  0  0  0
   -5.5675   -0.5992    0.0551 C   0  0  0  0  0  0  0  0  0  0  0  0
   -6.5117   -1.3901    0.7319 C   0  0  0  0  0  0  0  0  0  0  0  0
   -6.1957   -2.2723    1.3030 H   0  0  0  0  0  0  0  0  0  0  0  0
   -7.8673   -1.0347    0.7020 C   0  0  0  0  0  0  0  0  0  0  0  0
   -8.6052   -1.6529    1.2319 H   0  0  0  0  0  0  0  0  0  0  0  0
   -8.2675    0.1189    0.0080 C   0  0  0  0  0  0  0  0  0  0  0  0
   -7.3222    0.9219   -0.6541 C   0  0  0  0  0  0  0  0  0  0  0  0
   -7.6365    1.8266   -1.1929 H   0  0  0  0  0  0  0  0  0  0  0  0
   -5.9707    0.5590   -0.6343 C   0  0  0  0  0  0  0  0  0  0  0  0
   -5.2149    1.1708   -1.1454 H   0  0  0  0  0  0  0  0  0  0  0  0
  -10.3148    0.6563   -0.0362 I   0  0  0  0  0  0  0  0  0  0  0  0
   -4.1838   -0.9403    0.0695 N   0  0  0  0  0  0  0  0  0  0  0  0
   -3.2684    0.0632    0.1075 N   0  0  0  0  0  2  0  0  0  0  0  0
   -2.1002   -0.5148    0.0521 N   0  0  0  0  0  2  0  0  0  0  0  0
    0.1213   -2.0620   -0.1843 O   0  5  0  0  0  0  0  0  0  0  0  0
   -1.1205   -3.9681   -0.2369 O   0  0  0  0  0  0  0  0  0  0  0  0
  1  2  1  0  0  0  0
  2  3  2  0  0  0  0
  2 21  1  0  0  0  0
  3 19  1  0  0  0  0
  4  3  1  0  0  0  0
  4  7  1  0  0  0  0
  5  4  1  0  0  0  0
  6  4  1  0  0  0  0
  8 19  1  0  0  0  0
  8  9  1  0  0  0  0
  9 10  1  0  0  0  0
 11  9  2  0  0  0  0
 11 12  1  0  0  0  0
 13 11  1  0  0  0  0
 14 16  1  0  0  0  0
 14 13  2  0  0  0  0
 15 14  1  0  0  0  0
 16  8  2  0  0  0  0
 17 16  1  0  0  0  0
 18 13  1  0  0  0  0
 19 20  1  0  0  0  0
 21 20  1  0  0  0  0
 22  1  1  0  0  0  0
 23  1  2  0  0  0  0
M  CHG  1  22  -1
M  END
