1,2
 OpenBabel05122313063D

 25 25  0  0  0  0  0  0  0  0999 V2000
   -0.9232   -0.6281   -0.0182 O   0  5  0  0  0  0  0  0  0  0  0  0
    0.2457    1.7497   -0.0145 N   0  0  0  0  0  2  0  0  0  0  0  0
   -4.9604   -1.4372    0.0345 N   0  0  0  0  0  0  0  0  0  0  0  0
    0.8911    2.9325   -0.0326 C   0  0  0  0  0  3  0  0  0  0  0  0
    1.9907    2.8910   -0.0280 H   0  0  0  0  0  0  0  0  0  0  0  0
    0.2186    4.1599   -0.0588 C   0  0  0  0  0  0  0  0  0  0  0  0
    0.7938    5.0963   -0.0749 H   0  0  0  0  0  0  0  0  0  0  0  0
   -1.1824    4.1603   -0.0642 C   0  0  0  0  0  0  0  0  0  0  0  0
   -1.7454    5.1047   -0.0846 H   0  0  0  0  0  0  0  0  0  0  0  0
   -1.8570    2.9326   -0.0450 C   0  0  0  0  0  0  0  0  0  0  0  0
   -2.9543    2.9086   -0.0517 H   0  0  0  0  0  0  0  0  0  0  0  0
   -1.1247    1.7347   -0.0213 C   0  0  0  0  0  0  0  0  0  0  0  0
   -1.7307    0.3661   -0.0098 C   0  0  0  0  0  0  0  0  0  0  0  0
   -3.1418    0.1894    0.0084 C   0  0  0  0  0  0  0  0  0  0  0  0
   -3.7990    1.0661    0.0200 H   0  0  0  0  0  0  0  0  0  0  0  0
   -3.6677   -1.1035    0.0162 C   0  0  0  0  0  3  0  0  0  0  0  0
   -2.9519   -1.9419    0.0066 H   0  0  0  0  0  0  0  0  0  0  0  0
   -6.0011   -0.4127    0.0494 C   0  0  0  0  0  0  0  0  0  0  0  0
   -5.9116    0.2239    0.9537 H   0  0  0  0  0  0  0  0  0  0  0  0
   -6.9938   -0.8952    0.0553 H   0  0  0  0  0  0  0  0  0  0  0  0
   -5.9273    0.2334   -0.8495 H   0  0  0  0  0  0  0  0  0  0  0  0
   -5.3853   -2.8334    0.0435 C   0  0  0  0  0  0  0  0  0  0  0  0
   -4.5004   -3.4946    0.0309 H   0  0  0  0  0  0  0  0  0  0  0  0
   -6.0103   -3.0536   -0.8466 H   0  0  0  0  0  0  0  0  0  0  0  0
   -5.9824   -3.0506    0.9533 H   0  0  0  0  0  0  0  0  0  0  0  0
  1 13  1  0  0  0  0
  3 22  1  0  0  0  0
  3 18  1  0  0  0  0
  4  5  1  0  0  0  0
  4  2  1  0  0  0  0
  6  4  1  0  0  0  0
  7  6  1  0  0  0  0
  8  6  2  0  0  0  0
  8 10  1  0  0  0  0
  9  8  1  0  0  0  0
 10 12  2  0  0  0  0
 11 10  1  0  0  0  0
 12  2  1  0  0  0  0
 12 13  1  0  0  0  0
 13 14  2  0  0  0  0
 14 16  1  0  0  0  0
 14 15  1  0  0  0  0
 16  3  1  0  0  0  0
 17 16  1  0  0  0  0
 18 20  1  0  0  0  0
 18 19  1  0  0  0  0
 21 18  1  0  0  0  0
 22 25  1  0  0  0  0
 23 22  1  0  0  0  0
 24 22  1  0  0  0  0
M  CHG  1   1  -1
M  END
