11,19
 OpenBabel05122313063D

 30 31  0  0  0  0  0  0  0  0999 V2000
   -6.9703    0.9995   -0.4240 N   0  0  0  0  0  0  0  0  0  0  0  0
   -6.9602   -0.6313    0.0377 S   0  0  0  0  0  0  0  0  0  0  0  0
   -7.5809   -1.3621   -1.0804 O   0  0  0  0  0  0  0  0  0  0  0  0
   -7.4769   -0.6471    1.4171 O   0  0  0  0  0  0  0  0  0  0  0  0
   -5.2230   -1.1061    0.0994 C   0  0  0  0  0  0  0  0  0  0  0  0
   -4.4869   -0.8515    1.2685 C   0  0  0  0  0  0  0  0  0  0  0  0
   -3.1112   -1.0914    1.2699 C   0  0  0  0  0  0  0  0  0  0  0  0
   -2.4837   -1.6012    0.1161 C   0  0  0  0  0  0  0  0  0  0  0  0
   -3.2409   -1.9001   -1.0311 C   0  0  0  0  0  0  0  0  0  0  0  0
   -4.6198   -1.6526   -1.0422 C   0  0  0  0  0  0  0  0  0  0  0  0
   -1.0649   -1.7271    0.0950 N   0  0  0  0  0  2  0  0  0  0  0  0
   -0.5253   -2.9245    0.0482 C   0  0  0  0  0  0  0  0  0  0  0  0
    0.8666   -3.2586    0.0383 C   0  0  0  0  0  0  0  0  0  0  0  0
    1.2151   -4.6411   -0.0315 C   0  0  0  0  0  3  0  0  0  0  0  0
    2.5352   -5.0657   -0.0084 C   0  0  0  0  0  0  0  0  0  0  0  0
    3.5645   -4.0958    0.0979 C   0  0  0  0  0  0  0  0  0  0  0  0
    3.2694   -2.7413    0.1744 C   0  0  0  0  0  0  0  0  0  0  0  0
    1.9174   -2.2702    0.1404 C   0  0  0  0  0  0  0  0  0  0  0  0
    1.7318   -0.9848    0.2116 O   0  5  0  0  0  0  0  0  0  0  0  0
   -6.5747    1.1501   -1.3594 H   0  0  0  0  0  0  0  0  0  0  0  0
   -6.5499    1.6111    0.2855 H   0  0  0  0  0  0  0  0  0  0  0  0
   -5.0001   -0.4628    2.1602 H   0  0  0  0  0  0  0  0  0  0  0  0
   -2.4998   -0.8676    2.1556 H   0  0  0  0  0  0  0  0  0  0  0  0
   -2.7338   -2.2903   -1.9257 H   0  0  0  0  0  0  0  0  0  0  0  0
   -5.2346   -1.8689   -1.9281 H   0  0  0  0  0  0  0  0  0  0  0  0
   -1.2283   -3.7808    0.0401 H   0  0  0  0  0  0  0  0  0  0  0  0
    0.3997   -5.3785   -0.1041 H   0  0  0  0  0  0  0  0  0  0  0  0
    2.7809   -6.1352   -0.0669 H   0  0  0  0  0  0  0  0  0  0  0  0
    4.6165   -4.4224    0.1203 H   0  0  0  0  0  0  0  0  0  0  0  0
    4.0578   -1.9783    0.2554 H   0  0  0  0  0  0  0  0  0  0  0  0
  1  2  1  0  0  0  0
  1 21  1  0  0  0  0
  2  5  1  0  0  0  0
  2  4  2  0  0  0  0
  3  2  2  0  0  0  0
  5  6  1  0  0  0  0
  6  7  2  0  0  0  0
  6 22  1  0  0  0  0
  7 23  1  0  0  0  0
  8  7  1  0  0  0  0
  9  8  2  0  0  0  0
 10  9  1  0  0  0  0
 10  5  2  0  0  0  0
 11  8  1  0  0  0  0
 12 11  1  0  0  0  0
 13 12  2  0  0  0  0
 13 18  1  0  0  0  0
 14 15  1  0  0  0  0
 14 13  1  0  0  0  0
 15 16  2  0  0  0  0
 16 29  1  0  0  0  0
 16 17  1  0  0  0  0
 17 30  1  0  0  0  0
 18 17  2  0  0  0  0
 18 19  1  0  0  0  0
 20  1  1  0  0  0  0
 24  9  1  0  0  0  0
 25 10  1  0  0  0  0
 26 12  1  0  0  0  0
 27 14  1  0  0  0  0
 28 15  1  0  0  0  0
M  CHG  1  19  -1
M  END
