5,6
 OpenBabel05122313063D

 21 22  0  0  1  0  0  0  0  0999 V2000
    2.0237    3.4506   -0.6158 S   0  0  0  0  0  0  0  0  0  0  0  0
   -3.9489    1.7936   -0.8571 F   0  0  0  0  0  0  0  0  0  0  0  0
   -3.1400    3.7986   -0.5333 F   0  0  0  0  0  0  0  0  0  0  0  0
   -3.6025    2.5130    1.1727 F   0  0  0  0  0  0  0  0  0  0  0  0
   -1.6677    0.6854    0.2394 O   0  5  0  0  0  0  0  0  0  0  0  0
    1.1827    1.0435   -0.0335 N   0  0  0  0  0  2  0  0  0  0  0  0
    0.7360    2.2667   -0.3526 C   0  0  1  0  0  3  0  0  0  0  0  0
    2.5734    1.0065    0.0823 C   0  0  0  0  0  0  0  0  0  0  0  0
    3.3609   -0.0955    0.4786 C   0  0  0  0  0  0  0  0  0  0  0  0
    2.8718   -1.0460    0.7274 H   0  0  0  0  0  0  0  0  0  0  0  0
    4.7509    0.0489    0.5380 C   0  0  0  0  0  0  0  0  0  0  0  0
    5.3643   -0.8103    0.8485 H   0  0  0  0  0  0  0  0  0  0  0  0
    5.3777    1.2702    0.2127 C   0  0  0  0  0  0  0  0  0  0  0  0
    6.4730    1.3572    0.2660 H   0  0  0  0  0  0  0  0  0  0  0  0
    4.6151    2.3813   -0.1686 C   0  0  0  0  0  0  0  0  0  0  0  0
    5.0934    3.3409   -0.4118 H   0  0  0  0  0  0  0  0  0  0  0  0
    3.2202    2.2399   -0.2217 C   0  0  0  0  0  0  0  0  0  0  0  0
   -0.6147    2.7174   -0.4433 C   0  0  0  0  0  0  0  0  0  0  0  0
   -0.7915    3.7633   -0.7197 H   0  0  0  0  0  0  0  0  0  0  0  0
   -1.6976    1.9218   -0.1087 C   0  0  0  0  0  0  0  0  0  0  0  0
   -3.1057    2.5244   -0.0858 C   0  0  0  0  0  0  0  0  0  0  0  0
  1  7  1  0  0  0  0
  1 17  1  0  0  0  0
  2 21  1  0  0  0  0
  3 21  1  0  0  0  0
  6  8  1  0  0  0  0
  7 18  1  1  0  0  0
  7  6  1  0  0  0  0
  8  9  1  0  0  0  0
  9 11  2  0  0  0  0
  9 10  1  0  0  0  0
 11 12  1  0  0  0  0
 13 14  1  0  0  0  0
 13 11  1  0  0  0  0
 15 13  2  0  0  0  0
 16 15  1  0  0  0  0
 17 15  1  0  0  0  0
 17  8  2  0  0  0  0
 18 20  2  0  0  0  0
 19 18  1  0  0  0  0
 20 21  1  0  0  0  0
 20  5  1  0  0  0  0
 21  4  1  0  0  0  0
M  CHG  1   5  -1
M  END
