1,6
 OpenBabel05122313063D

 17 17  0  0  1  0  0  0  0  0999 V2000
    0.9377    1.4737   -0.8139 O   0  0  0  0  0  1  0  0  0  0  0  0
    2.4393    1.5741   -0.5517 S   0  0  0  0  0  0  0  0  0  0  0  0
    3.2319    2.0721   -1.6888 O   0  0  0  0  0  1  0  0  0  0  0  0
    2.7157    2.2296    0.7859 O   0  0  0  0  0  1  0  0  0  0  0  0
    2.9037   -0.1788   -0.2457 C   0  0  2  0  0  3  0  0  0  0  0  0
    1.8802   -0.9523    0.1467 N   0  0  0  0  0  2  0  0  0  0  0  0
    2.0736   -2.2542    0.4252 C   0  0  0  0  0  0  0  0  0  0  0  0
    3.3456   -2.8253    0.3269 C   0  0  0  0  0  0  0  0  0  0  0  0
    4.4227   -2.0090   -0.0475 C   0  0  0  0  0  0  0  0  0  0  0  0
    4.2341   -0.6434   -0.3404 C   0  0  0  0  0  0  0  0  0  0  0  0
    5.3760    0.2556   -0.7176 C   0  0  0  0  0  0  0  0  0  0  0  0
    5.3862    1.1595   -0.0761 H   0  0  0  0  0  0  0  0  0  0  0  0
    5.2546    0.6272   -1.7539 H   0  0  0  0  0  0  0  0  0  0  0  0
    6.3435   -0.2719   -0.6210 H   0  0  0  0  0  0  0  0  0  0  0  0
    5.4376   -2.4321   -0.1150 H   0  0  0  0  0  0  0  0  0  0  0  0
    3.4911   -3.8921    0.5480 H   0  0  0  0  0  0  0  0  0  0  0  0
    1.1811   -2.8230    0.7271 H   0  0  0  0  0  0  0  0  0  0  0  0
  1  2  1  0  0  0  0
  2  4  1  0  0  0  0
  3  2  1  0  0  0  0
  5  2  1  1  0  0  0
  5  6  1  0  0  0  0
  6  7  1  0  0  0  0
  7 17  1  0  0  0  0
  8  7  2  0  0  0  0
  8 16  1  0  0  0  0
  9  8  1  0  0  0  0
 10  5  1  0  0  0  0
 10  9  2  0  0  0  0
 11 14  1  0  0  0  0
 11 10  1  0  0  0  0
 11 12  1  0  0  0  0
 13 11  1  0  0  0  0
 15  9  1  0  0  0  0
M  END
