1,3
 OpenBabel05122313063D

 34 34  0  0  0  0  0  0  0  0999 V2000
    1.4455   -0.5810   -0.6550 O   0  5  0  0  0  0  0  0  0  0  0  0
    2.8852   -2.7356   -0.0603 O   0  0  0  0  0  0  0  0  0  0  0  0
   -0.7288    0.5155   -2.1970 N   0  0  0  0  0  2  0  0  0  0  0  0
   -3.3698    1.2674   -1.0820 N   0  3  0  0  0  0  0  0  0  0  0  0
    0.1566   -1.7796   -2.3266 C   0  0  0  0  0  0  0  0  0  0  0  0
    1.1681   -1.6892   -1.3102 C   0  0  0  0  0  0  0  0  0  0  0  0
    1.9198   -2.8830   -1.0259 C   0  0  0  0  0  0  0  0  0  0  0  0
    1.6584   -4.0810   -1.6952 C   0  0  0  0  0  0  0  0  0  0  0  0
    2.2338   -4.9852   -1.4562 H   0  0  0  0  0  0  0  0  0  0  0  0
    0.6592   -4.1494   -2.6920 C   0  0  0  0  0  0  0  0  0  0  0  0
    0.4749   -5.0989   -3.2134 H   0  0  0  0  0  0  0  0  0  0  0  0
   -0.0685   -3.0129   -3.0059 C   0  0  0  0  0  0  0  0  0  0  0  0
   -0.8403   -3.0467   -3.7905 H   0  0  0  0  0  0  0  0  0  0  0  0
   -0.6440   -0.6563   -2.7547 C   0  0  0  0  0  3  0  0  0  0  0  0
   -1.2406   -0.8431   -3.6791 H   0  0  0  0  0  0  0  0  0  0  0  0
   -1.5438    1.5330   -2.8348 C   0  0  0  0  0  0  0  0  0  0  0  0
   -2.0840    1.1259   -3.7211 H   0  0  0  0  0  0  0  0  0  0  0  0
   -0.8768    2.3445   -3.1997 H   0  0  0  0  0  0  0  0  0  0  0  0
   -2.4949    2.2132   -1.8511 C   0  0  0  0  0  0  0  0  0  0  0  0
   -1.8981    2.7790   -1.1079 H   0  0  0  0  0  0  0  0  0  0  0  0
   -3.1476    2.9295   -2.3915 H   0  0  0  0  0  0  0  0  0  0  0  0
   -4.2176    2.0125   -0.1132 C   0  0  0  0  0  0  0  0  0  0  0  0
   -3.5618    2.6326    0.5241 H   0  0  0  0  0  0  0  0  0  0  0  0
   -4.7498    1.2791    0.5178 H   0  0  0  0  0  0  0  0  0  0  0  0
   -4.9372    2.6582   -0.6523 H   0  0  0  0  0  0  0  0  0  0  0  0
   -4.1759    0.3805   -1.9540 C   0  0  0  0  0  0  0  0  0  0  0  0
   -4.7786    0.9882   -2.6570 H   0  0  0  0  0  0  0  0  0  0  0  0
   -4.8401   -0.2300   -1.3211 H   0  0  0  0  0  0  0  0  0  0  0  0
   -3.5079   -0.2938   -2.5171 H   0  0  0  0  0  0  0  0  0  0  0  0
    3.5776   -3.9056    0.3512 C   0  0  0  0  0  0  0  0  0  0  0  0
    2.8792   -4.6756    0.7451 H   0  0  0  0  0  0  0  0  0  0  0  0
    4.2662   -3.6032    1.1627 H   0  0  0  0  0  0  0  0  0  0  0  0
    4.1735   -4.3486   -0.4768 H   0  0  0  0  0  0  0  0  0  0  0  0
   -2.6924    0.6623   -0.4341 H   0  0  0  0  0  0  0  0  0  0  0  0
  2 30  1  0  0  0  0
  4 34  1  0  0  0  0
  4 22  1  0  0  0  0
  5  6  1  0  0  0  0
  6  7  2  0  0  0  0
  6  1  1  0  0  0  0
  7  2  1  0  0  0  0
  8  9  1  0  0  0  0
  8  7  1  0  0  0  0
 10  8  2  0  0  0  0
 11 10  1  0  0  0  0
 12 10  1  0  0  0  0
 12  5  2  0  0  0  0
 13 12  1  0  0  0  0
 14  5  1  0  0  0  0
 14  3  1  0  0  0  0
 15 14  1  0  0  0  0
 16  3  1  0  0  0  0
 16 19  1  0  0  0  0
 17 16  1  0  0  0  0
 18 16  1  0  0  0  0
 19 20  1  0  0  0  0
 19  4  1  0  0  0  0
 21 19  1  0  0  0  0
 22 24  1  0  0  0  0
 22 23  1  0  0  0  0
 25 22  1  0  0  0  0
 26 28  1  0  0  0  0
 26  4  1  0  0  0  0
 27 26  1  0  0  0  0
 29 26  1  0  0  0  0
 30 31  1  0  0  0  0
 30 32  1  0  0  0  0
 33 30  1  0  0  0  0
M  CHG  2   1  -1   4   1
M  END
