1,3
 OpenBabel05122313063D

 19 20  0  0  0  0  0  0  0  0999 V2000
    2.0163    0.9856    0.4338 O   0  5  0  0  0  0  0  0  0  0  0  0
   -0.2569   -0.9712   -2.0542 O   0  0  0  0  0  1  0  0  0  0  0  0
    0.5129   -0.3970   -1.2769 N   0  0  0  0  0  2  0  0  0  0  0  0
    2.5606   -0.0220   -0.1590 C   0  0  0  0  0  0  0  0  0  0  0  0
    1.8167   -0.8073   -1.1039 C   0  0  0  0  0  0  0  0  0  0  0  0
    2.3950   -1.9169   -1.7983 C   0  0  0  0  0  0  0  0  0  0  0  0
    3.7034   -2.2508   -1.5560 C   0  0  0  0  0  0  0  0  0  0  0  0
    4.5066   -1.5033   -0.6142 C   0  0  0  0  0  0  0  0  0  0  0  0
    3.9454   -0.3864    0.0914 C   0  0  0  0  0  0  0  0  0  0  0  0
    4.7309    0.3421    1.0150 C   0  0  0  0  0  0  0  0  0  0  0  0
    6.0575   -0.0168    1.2468 C   0  0  0  0  0  0  0  0  0  0  0  0
    6.6208   -1.1137    0.5565 C   0  0  0  0  0  0  0  0  0  0  0  0
    5.8587   -1.8430   -0.3564 C   0  0  0  0  0  0  0  0  0  0  0  0
    1.7588   -2.4665   -2.5055 H   0  0  0  0  0  0  0  0  0  0  0  0
    4.1673   -3.1025   -2.0760 H   0  0  0  0  0  0  0  0  0  0  0  0
    4.2654    1.1883    1.5403 H   0  0  0  0  0  0  0  0  0  0  0  0
    6.6654    0.5509    1.9669 H   0  0  0  0  0  0  0  0  0  0  0  0
    7.6685   -1.3960    0.7410 H   0  0  0  0  0  0  0  0  0  0  0  0
    6.3021   -2.6975   -0.8906 H   0  0  0  0  0  0  0  0  0  0  0  0
  2  3  1  0  0  0  0
  3  5  1  0  0  0  0
  4  9  1  0  0  0  0
  4  1  1  0  0  0  0
  5  4  2  0  0  0  0
  6  7  2  0  0  0  0
  6  5  1  0  0  0  0
  7  8  1  0  0  0  0
  8 13  2  0  0  0  0
  8  9  1  0  0  0  0
  9 10  2  0  0  0  0
 10 11  1  0  0  0  0
 10 16  1  0  0  0  0
 11 17  1  0  0  0  0
 12 18  1  0  0  0  0
 12 11  2  0  0  0  0
 13 12  1  0  0  0  0
 14  6  1  0  0  0  0
 15  7  1  0  0  0  0
 19 13  1  0  0  0  0
M  CHG  1   1  -1
M  END
