1,20
 OpenBabel05122313063D

 29 32  0  0  1  0  0  0  0  0999 V2000
    1.8609   -1.3684   -0.2487 N   0  0  0  0  0  2  0  0  0  0  0  0
    2.8349   -0.4385   -0.3237 C   0  0  0  0  0  0  0  0  0  0  0  0
    4.1954   -1.0813   -0.5495 C   0  0  0  0  0  0  0  0  0  0  0  0
    3.8957   -2.5129   -0.5455 C   0  0  0  0  0  0  0  0  0  0  0  0
    4.7329   -3.6287   -0.6703 C   0  0  0  0  0  0  0  0  0  0  0  0
    4.1584   -4.9051   -0.5817 C   0  0  0  0  0  0  0  0  0  0  0  0
    2.7707   -5.0300   -0.3637 C   0  0  0  0  0  0  0  0  0  0  0  0
    1.9211   -3.9146   -0.2402 C   0  0  0  0  0  0  0  0  0  0  0  0
    2.4885   -2.6367   -0.3460 C   0  0  0  0  0  0  0  0  0  0  0  0
    5.2631   -0.4746   -0.6870 O   0  0  0  0  0  0  0  0  0  0  0  0
    3.7655    1.8365   -0.2770 N   0  0  0  0  0  0  0  0  0  0  0  0
    2.7033    0.9430   -0.1728 C   0  0  0  0  0  0  0  0  0  0  0  0
    1.5178    1.6773    0.2010 C   0  0  0  0  0  0  0  0  0  0  0  0
    1.9310    3.0605    0.3322 C   0  0  0  0  0  0  0  0  0  0  0  0
    1.2394    4.2407    0.6702 C   0  0  0  0  0  0  0  0  0  0  0  0
    1.9414    5.4486    0.6940 C   0  0  0  0  0  0  0  0  0  0  0  0
    3.3254    5.4815    0.3871 C   0  0  0  0  0  0  0  0  0  0  0  0
    4.0371    4.3237    0.0508 C   0  0  0  0  0  0  0  0  0  0  0  0
    3.3327    3.1060    0.0234 C   0  0  2  0  0  3  0  0  0  0  0  0
    0.3370    1.2010    0.3862 O   0  5  0  0  0  0  0  0  0  0  0  0
    5.8131   -3.4858   -0.8262 H   0  0  0  0  0  0  0  0  0  0  0  0
    4.7840   -5.8050   -0.6739 H   0  0  0  0  0  0  0  0  0  0  0  0
    2.3292   -6.0358   -0.2847 H   0  0  0  0  0  0  0  0  0  0  0  0
    0.8426   -4.0306   -0.0784 H   0  0  0  0  0  0  0  0  0  0  0  0
    4.7124    1.4969   -0.4802 H   0  0  0  0  0  0  0  0  0  0  0  0
    0.1678    4.1986    0.9117 H   0  0  0  0  0  0  0  0  0  0  0  0
    1.4219    6.3824    0.9543 H   0  0  0  0  0  0  0  0  0  0  0  0
    3.8579    6.4445    0.4144 H   0  0  0  0  0  0  0  0  0  0  0  0
    5.1108    4.3624   -0.1842 H   0  0  0  0  0  0  0  0  0  0  0  0
  2  1  1  0  0  0  0
  2 12  2  0  0  0  0
  3  4  1  0  0  0  0
  3  2  1  0  0  0  0
  4  9  1  0  0  0  0
  5  6  1  0  0  0  0
  5  4  2  0  0  0  0
  6  7  2  0  0  0  0
  7 23  1  0  0  0  0
  7  8  1  0  0  0  0
  8 24  1  0  0  0  0
  9  1  1  0  0  0  0
  9  8  2  0  0  0  0
 10  3  2  0  0  0  0
 11 12  1  0  0  0  0
 11 19  1  0  0  0  0
 12 13  1  0  0  0  0
 13 14  2  0  0  0  0
 13 20  1  0  0  0  0
 14 15  1  0  0  0  0
 15 16  2  0  0  0  0
 15 26  1  0  0  0  0
 16 27  1  0  0  0  0
 17 28  1  0  0  0  0
 17 16  1  0  0  0  0
 18 17  2  0  0  0  0
 19 18  1  6  0  0  0
 19 14  1  0  0  0  0
 21  5  1  0  0  0  0
 22  6  1  0  0  0  0
 25 11  1  0  0  0  0
 29 18  1  0  0  0  0
M  CHG  1  20  -1
M  END
