1,17
 OpenBabel05122313063D

 46 47  0  0  1  0  0  0  0  0999 V2000
    1.5445   -1.5542    0.9994 O   0  0  0  0  0  1  0  0  0  0  0  0
    2.4118   -0.6372    1.2675 N   0  0  0  0  0  0  0  0  0  0  0  0
    2.0687    0.7091    1.3894 C   0  0  2  0  0  3  0  0  0  0  0  0
    3.0931    1.6360    1.6522 C   0  0  0  0  0  0  0  0  0  0  0  0
    2.8186    2.6950    1.7372 H   0  0  0  0  0  0  0  0  0  0  0  0
    4.4286    1.2509    1.7696 C   0  0  0  0  0  0  0  0  0  0  0  0
    5.2138    1.9974    1.9506 H   0  0  0  0  0  0  0  0  0  0  0  0
    4.7369   -0.1126    1.6446 C   0  0  0  0  0  0  0  0  0  0  0  0
    5.7690   -0.4819    1.7227 H   0  0  0  0  0  0  0  0  0  0  0  0
    3.7216   -1.0246    1.3981 C   0  0  0  0  0  0  0  0  0  0  0  0
    3.8623   -2.1040    1.2612 H   0  0  0  0  0  0  0  0  0  0  0  0
    0.6523    1.1490    1.3039 C   0  0  1  0  0  3  0  0  0  0  0  0
    0.2846    2.4207    2.0250 C   0  0  0  0  0  0  0  0  0  0  0  0
    0.5922    3.3015    1.4217 H   0  0  0  0  0  0  0  0  0  0  0  0
    0.7784    2.4928    3.0123 H   0  0  0  0  0  0  0  0  0  0  0  0
   -0.8122    2.4803    2.1472 H   0  0  0  0  0  0  0  0  0  0  0  0
   -0.2014    0.4717    0.6014 N   0  0  0  0  0  2  0  0  0  0  0  0
   -1.5733    0.8503    0.5053 C   0  0  0  0  0  0  0  0  0  0  0  0
   -2.5067    0.1193    1.2857 C   0  0  0  0  0  0  0  0  0  0  0  0
   -3.8614    0.4777    1.1811 C   0  0  0  0  0  0  0  0  0  0  0  0
   -4.6065   -0.0607    1.7847 H   0  0  0  0  0  0  0  0  0  0  0  0
   -4.2776    1.4934    0.3097 C   0  0  0  0  0  0  0  0  0  0  0  0
   -5.3441    1.7551    0.2400 H   0  0  0  0  0  0  0  0  0  0  0  0
   -3.3412    2.1531   -0.4946 C   0  0  0  0  0  0  0  0  0  0  0  0
   -3.6800    2.9188   -1.2089 H   0  0  0  0  0  0  0  0  0  0  0  0
   -1.9699    1.8426   -0.4250 C   0  0  0  0  0  0  0  0  0  0  0  0
   -2.0310   -0.9866    2.2192 C   0  0  0  0  0  0  0  0  0  0  0  0
   -1.0701   -1.3582    1.8055 H   0  0  0  0  0  0  0  0  0  0  0  0
   -2.9902   -2.1816    2.2671 C   0  0  0  0  0  0  0  0  0  0  0  0
   -3.9607   -1.9226    2.7392 H   0  0  0  0  0  0  0  0  0  0  0  0
   -2.5445   -3.0014    2.8658 H   0  0  0  0  0  0  0  0  0  0  0  0
   -3.1799   -2.5676    1.2466 H   0  0  0  0  0  0  0  0  0  0  0  0
   -1.7482   -0.4351    3.6288 C   0  0  0  0  0  0  0  0  0  0  0  0
   -2.6731   -0.0251    4.0858 H   0  0  0  0  0  0  0  0  0  0  0  0
   -0.9973    0.3809    3.6137 H   0  0  0  0  0  0  0  0  0  0  0  0
   -1.3635   -1.2350    4.2944 H   0  0  0  0  0  0  0  0  0  0  0  0
   -0.9800    2.4661   -1.4008 C   0  0  0  0  0  0  0  0  0  0  0  0
    0.0456    2.1678   -1.0997 H   0  0  0  0  0  0  0  0  0  0  0  0
   -1.1993    1.8746   -2.8063 C   0  0  0  0  0  0  0  0  0  0  0  0
   -1.1457    0.7680   -2.7843 H   0  0  0  0  0  0  0  0  0  0  0  0
   -0.4187    2.2343   -3.5063 H   0  0  0  0  0  0  0  0  0  0  0  0
   -2.1938    2.1605   -3.2076 H   0  0  0  0  0  0  0  0  0  0  0  0
   -1.0387    4.0007   -1.4129 C   0  0  0  0  0  0  0  0  0  0  0  0
   -2.0186    4.3723   -1.7775 H   0  0  0  0  0  0  0  0  0  0  0  0
   -0.2606    4.4120   -2.0873 H   0  0  0  0  0  0  0  0  0  0  0  0
   -0.8783    4.4274   -0.4012 H   0  0  0  0  0  0  0  0  0  0  0  0
  1  2  1  0  0  0  0
  2  3  1  0  0  0  0
  2 10  1  0  0  0  0
  3 12  1  1  0  0  0
  3  4  1  0  0  0  0
  4  5  1  0  0  0  0
  4  6  2  0  0  0  0
  6  7  1  0  0  0  0
  8  9  1  0  0  0  0
  8  6  1  0  0  0  0
 10  8  2  0  0  0  0
 11 10  1  0  0  0  0
 12 17  1  6  0  0  0
 12 13  1  0  0  0  0
 13 16  1  0  0  0  0
 13 15  1  0  0  0  0
 14 13  1  0  0  0  0
 18 17  1  0  0  0  0
 18 19  1  0  0  0  0
 19 27  1  0  0  0  0
 20 19  2  0  0  0  0
 20 21  1  0  0  0  0
 22 20  1  0  0  0  0
 23 22  1  0  0  0  0
 24 26  1  0  0  0  0
 24 22  2  0  0  0  0
 25 24  1  0  0  0  0
 26 18  2  0  0  0  0
 27 29  1  0  0  0  0
 27 33  1  0  0  0  0
 28 27  1  0  0  0  0
 29 30  1  0  0  0  0
 29 31  1  0  0  0  0
 32 29  1  0  0  0  0
 33 34  1  0  0  0  0
 33 36  1  0  0  0  0
 35 33  1  0  0  0  0
 37 38  1  0  0  0  0
 37 26  1  0  0  0  0
 39 40  1  0  0  0  0
 39 37  1  0  0  0  0
 41 39  1  0  0  0  0
 42 39  1  0  0  0  0
 43 37  1  0  0  0  0
 43 46  1  0  0  0  0
 44 43  1  0  0  0  0
 45 43  1  0  0  0  0
M  END
