3,4
 OpenBabel05122313063D

 27 27  0  0  0  0  0  0  0  0999 V2000
    3.8955    2.5088    1.4693 Br  0  0  0  0  0  0  0  0  0  0  0  0
    7.2054   -1.6818   -0.5089 Br  0  0  0  0  0  0  0  0  0  0  0  0
    0.6430   -1.7978   -0.2061 N   0  0  0  0  0  2  0  0  0  0  0  0
    1.6869    0.6065    0.5479 O   0  5  0  0  0  0  0  0  0  0  0  0
    3.0410   -1.2528   -0.1799 C   0  0  0  0  0  0  0  0  0  0  0  0
    2.8525    0.0754    0.3362 C   0  0  0  0  0  0  0  0  0  0  0  0
    4.0519    0.7984    0.6553 C   0  0  0  0  0  0  0  0  0  0  0  0
    5.3227    0.2868    0.4025 C   0  0  0  0  0  0  0  0  0  0  0  0
    6.2106    0.8857    0.6462 H   0  0  0  0  0  0  0  0  0  0  0  0
    5.4625   -1.0028   -0.1573 C   0  0  0  0  0  0  0  0  0  0  0  0
    4.3376   -1.7731   -0.4274 C   0  0  0  0  0  3  0  0  0  0  0  0
    4.4430   -2.7936   -0.8236 H   0  0  0  0  0  0  0  0  0  0  0  0
    1.9056   -2.1183   -0.3288 C   0  0  0  0  0  0  0  0  0  0  0  0
    2.1387   -3.1852   -0.5192 H   0  0  0  0  0  0  0  0  0  0  0  0
   -0.3114   -2.9137   -0.1691 C   0  0  0  0  0  0  0  0  0  0  0  0
    0.2108   -3.8419   -0.4895 H   0  0  0  0  0  0  0  0  0  0  0  0
   -1.1304   -2.7080   -0.8822 H   0  0  0  0  0  0  0  0  0  0  0  0
   -0.8873   -3.0982    1.2386 C   0  0  0  0  0  0  0  0  0  0  0  0
   -0.0484   -3.1974    1.9632 H   0  0  0  0  0  0  0  0  0  0  0  0
   -1.4329   -2.1716    1.5175 H   0  0  0  0  0  0  0  0  0  0  0  0
   -1.8202   -4.3065    1.3517 C   0  0  0  0  0  0  0  0  0  0  0  0
   -2.6315   -4.2079    0.5989 H   0  0  0  0  0  0  0  0  0  0  0  0
   -1.2612   -5.2305    1.0818 H   0  0  0  0  0  0  0  0  0  0  0  0
   -2.4274   -4.4572    2.7465 C   0  0  0  0  0  0  0  0  0  0  0  0
   -1.6413   -4.5758    3.5215 H   0  0  0  0  0  0  0  0  0  0  0  0
   -3.0952   -5.3397    2.8086 H   0  0  0  0  0  0  0  0  0  0  0  0
   -3.0271   -3.5638    3.0186 H   0  0  0  0  0  0  0  0  0  0  0  0
  2 10  1  0  0  0  0
  3 15  1  0  0  0  0
  5  6  1  0  0  0  0
  6  4  1  0  0  0  0
  6  7  2  0  0  0  0
  7  1  1  0  0  0  0
  8  9  1  0  0  0  0
  8  7  1  0  0  0  0
 10  8  2  0  0  0  0
 11  5  1  0  0  0  0
 11 10  1  0  0  0  0
 12 11  1  0  0  0  0
 13  3  1  0  0  0  0
 13  5  2  0  0  0  0
 14 13  1  0  0  0  0
 15 18  1  0  0  0  0
 16 15  1  0  0  0  0
 17 15  1  0  0  0  0
 18 21  1  0  0  0  0
 18 20  1  0  0  0  0
 18 19  1  0  0  0  0
 21 24  1  0  0  0  0
 22 21  1  0  0  0  0
 23 21  1  0  0  0  0
 24 26  1  0  0  0  0
 24 27  1  0  0  0  0
 24 25  1  0  0  0  0
M  CHG  1   4  -1
M  END
