1,7
 OpenBabel05122313063D

 28 30  0  0  1  0  0  0  0  0999 V2000
   -1.5255    0.8401   -0.8889 O   0  0  0  0  0  1  0  0  0  0  0  0
   -3.6705    1.5507   -0.7971 N   0  0  0  0  0  0  0  0  0  0  0  0
   -3.2705    2.4289   -1.1470 H   0  0  0  0  0  0  0  0  0  0  0  0
   -4.6247   -0.8379    0.0555 C   0  0  0  0  0  0  0  0  0  0  0  0
   -5.0064   -1.8190    0.3745 H   0  0  0  0  0  0  0  0  0  0  0  0
   -2.3199   -1.8147   -0.0331 C   0  0  0  0  0  0  0  0  0  0  0  0
   -0.9793   -1.6237    0.0150 N   0  0  0  0  0  2  0  0  0  0  0  0
   -9.7543   -0.4819    0.5186 N   0  0  0  0  0  0  0  0  0  0  0  0
   -0.4193   -2.8301   -0.2000 N   0  0  0  0  0  0  0  0  0  0  0  0
   -2.7299    0.5571   -0.5937 C   0  0  1  0  0  3  0  0  0  0  0  0
   -9.1530    0.6224    0.9874 C   0  0  0  0  0  0  0  0  0  0  0  0
   -9.7882    1.3222    1.5602 H   0  0  0  0  0  0  0  0  0  0  0  0
   -3.2509   -0.7062   -0.1204 C   0  0  0  0  0  0  0  0  0  0  0  0
   -2.5884   -3.1278   -0.2163 N   0  0  0  0  0  0  0  0  0  0  0  0
   -1.3969   -3.7236   -0.3246 N   0  0  0  0  0  0  0  0  0  0  0  0
   -7.6203   -1.1562   -0.4112 C   0  0  0  0  0  0  0  0  0  0  0  0
   -7.0524   -1.9008   -0.9894 H   0  0  0  0  0  0  0  0  0  0  0  0
   -7.7933    0.9140    0.7984 C   0  0  0  0  0  0  0  0  0  0  0  0
   -7.3599    1.8208    1.2451 H   0  0  0  0  0  0  0  0  0  0  0  0
   -5.8185    2.6846   -0.9557 C   0  0  0  0  0  0  0  0  0  0  0  0
   -5.3882    3.1884   -1.8456 H   0  0  0  0  0  0  0  0  0  0  0  0
   -6.8719    2.4334   -1.1729 H   0  0  0  0  0  0  0  0  0  0  0  0
   -5.8134    3.4230   -0.1253 H   0  0  0  0  0  0  0  0  0  0  0  0
   -5.0288    1.4567   -0.6112 C   0  0  0  0  0  0  0  0  0  0  0  0
   -5.5405    0.2356   -0.1590 C   0  0  0  0  0  0  0  0  0  0  0  0
   -6.9889    0.0115    0.0697 C   0  0  0  0  0  0  0  0  0  0  0  0
   -8.9871   -1.3486   -0.1631 C   0  0  0  0  0  0  0  0  0  0  0  0
   -9.4900   -2.2561   -0.5427 H   0  0  0  0  0  0  0  0  0  0  0  0
  2 24  1  0  0  0  0
  2 10  1  0  0  0  0
  3  2  1  0  0  0  0
  4  5  1  0  0  0  0
  6  7  1  0  0  0  0
  8 11  1  0  0  0  0
  9  7  1  0  0  0  0
 10  1  1  6  0  0  0
 10 13  1  0  0  0  0
 11 12  1  0  0  0  0
 13  6  1  0  0  0  0
 13  4  2  0  0  0  0
 14  6  2  0  0  0  0
 15 14  1  0  0  0  0
 15  9  2  0  0  0  0
 16 27  1  0  0  0  0
 16 26  2  0  0  0  0
 17 16  1  0  0  0  0
 18 11  2  0  0  0  0
 18 19  1  0  0  0  0
 20 24  1  0  0  0  0
 20 23  1  0  0  0  0
 21 20  1  0  0  0  0
 22 20  1  0  0  0  0
 24 25  2  0  0  0  0
 25  4  1  0  0  0  0
 25 26  1  0  0  0  0
 26 18  1  0  0  0  0
 27  8  2  0  0  0  0
 28 27  1  0  0  0  0
M  END
