1,2
 OpenBabel05122313063D

 20 20  0  0  1  0  0  0  0  0999 V2000
    1.4509    1.3168   -0.5228 O   0  0  0  0  0  1  0  0  0  0  0  0
   -1.0169   -0.4948   -0.1092 N   0  0  0  0  0  2  0  0  0  0  0  0
   -0.4384    2.5488   -0.0059 N   0  0  0  0  0  0  0  0  0  0  0  0
    1.0440    3.2442   -1.6548 N   0  0  0  0  0  0  0  0  0  0  0  0
   -1.6309   -1.5365   -0.6983 C   0  0  0  0  0  3  0  0  0  0  0  0
   -3.0272   -1.6515   -0.7288 C   0  0  0  0  0  0  0  0  0  0  0  0
   -3.7959   -0.6487   -0.1227 C   0  0  0  0  0  0  0  0  0  0  0  0
   -3.1454    0.4410    0.4762 C   0  0  0  0  0  0  0  0  0  0  0  0
   -1.7424    0.4926    0.4628 C   0  0  0  0  0  0  0  0  0  0  0  0
   -0.9505    1.6553    1.0282 C   0  0  0  0  0  0  0  0  0  0  0  0
    0.7194    2.3091   -0.7033 C   0  0  2  0  0  3  0  0  0  0  0  0
   -1.0943    3.2201   -0.4079 H   0  0  0  0  0  0  0  0  0  0  0  0
    0.7168    4.2065   -1.5724 H   0  0  0  0  0  0  0  0  0  0  0  0
    1.9548    3.1074   -2.0937 H   0  0  0  0  0  0  0  0  0  0  0  0
   -0.9468   -2.2792   -1.1492 H   0  0  0  0  0  0  0  0  0  0  0  0
   -3.4967   -2.5188   -1.2146 H   0  0  0  0  0  0  0  0  0  0  0  0
   -4.8949   -0.7110   -0.1175 H   0  0  0  0  0  0  0  0  0  0  0  0
   -3.7187    1.2487    0.9555 H   0  0  0  0  0  0  0  0  0  0  0  0
   -0.0947    1.2453    1.6159 H   0  0  0  0  0  0  0  0  0  0  0  0
   -1.5803    2.2504    1.7171 H   0  0  0  0  0  0  0  0  0  0  0  0
  2  9  1  0  0  0  0
  3 10  1  0  0  0  0
  4 13  1  0  0  0  0
  4 11  1  0  0  0  0
  5  2  1  0  0  0  0
  6  5  1  0  0  0  0
  6  7  2  0  0  0  0
  7 17  1  0  0  0  0
  7  8  1  0  0  0  0
  8 18  1  0  0  0  0
  9  8  2  0  0  0  0
  9 10  1  0  0  0  0
 10 19  1  0  0  0  0
 10 20  1  0  0  0  0
 11  1  1  6  0  0  0
 11  3  1  0  0  0  0
 12  3  1  0  0  0  0
 14  4  1  0  0  0  0
 15  5  1  0  0  0  0
 16  6  1  0  0  0  0
M  END
