2,5
 OpenBabel05122313063D

 33 33  0  0  0  0  0  0  0  0999 V2000
    6.1871    1.3585    0.4401 F   0  0  0  0  0  0  0  0  0  0  0  0
    0.3339    0.2096    1.5018 N   0  0  0  0  0  2  0  0  0  0  0  0
   -3.4282    1.9747    0.4095 N   0  3  0  0  0  0  0  0  0  0  0  0
   -4.1343    2.2049    1.1297 H   0  0  0  0  0  0  0  0  0  0  0  0
    1.5690   -1.4508   -0.5962 O   0  5  0  0  0  0  0  0  0  0  0  0
    2.6700    0.2988    0.6975 C   0  0  0  0  0  0  0  0  0  0  0  0
    2.6198   -0.7584   -0.3057 C   0  0  0  0  0  0  0  0  0  0  0  0
    3.8513   -1.0530   -0.9876 C   0  0  0  0  0  0  0  0  0  0  0  0
    3.8159   -1.8599   -1.7336 H   0  0  0  0  0  0  0  0  0  0  0  0
    5.0210   -0.3497   -0.7466 C   0  0  0  0  0  0  0  0  0  0  0  0
    5.9493   -0.5786   -1.2916 H   0  0  0  0  0  0  0  0  0  0  0  0
    5.0346    0.6853    0.2173 C   0  0  0  0  0  0  0  0  0  0  0  0
    3.8951    0.9977    0.9313 C   0  0  0  0  0  0  0  0  0  0  0  0
    3.9380    1.7928    1.6917 H   0  0  0  0  0  0  0  0  0  0  0  0
   -0.5495    0.5546    2.6066 C   0  0  0  0  0  0  0  0  0  0  0  0
   -0.1603    1.4472    3.1546 H   0  0  0  0  0  0  0  0  0  0  0  0
   -0.5611   -0.2859    3.3362 H   0  0  0  0  0  0  0  0  0  0  0  0
   -1.9991    0.7714    2.1503 C   0  0  0  0  0  0  0  0  0  0  0  0
   -2.6310    0.9890    3.0385 H   0  0  0  0  0  0  0  0  0  0  0  0
   -2.3348   -0.1970    1.7174 H   0  0  0  0  0  0  0  0  0  0  0  0
   -2.0842    1.8759    1.1134 C   0  0  0  0  0  0  0  0  0  0  0  0
   -1.9027    2.8782    1.5531 H   0  0  0  0  0  0  0  0  0  0  0  0
   -1.3497    1.7072    0.2941 H   0  0  0  0  0  0  0  0  0  0  0  0
   -3.8688    0.6992   -0.2590 C   0  0  0  0  0  0  0  0  0  0  0  0
   -4.8577    0.8805   -0.7176 H   0  0  0  0  0  0  0  0  0  0  0  0
   -3.9163   -0.1233    0.4744 H   0  0  0  0  0  0  0  0  0  0  0  0
   -3.1061    0.4468   -1.0254 H   0  0  0  0  0  0  0  0  0  0  0  0
   -3.3887    3.0915   -0.5885 C   0  0  0  0  0  0  0  0  0  0  0  0
   -3.1047    4.0281   -0.0757 H   0  0  0  0  0  0  0  0  0  0  0  0
   -4.3830    3.1940   -1.0589 H   0  0  0  0  0  0  0  0  0  0  0  0
   -2.6250    2.8156   -1.3441 H   0  0  0  0  0  0  0  0  0  0  0  0
    1.5728    0.6364    1.5573 C   0  0  0  0  0  3  0  0  0  0  0  0
    1.8344    1.3317    2.3896 H   0  0  0  0  0  0  0  0  0  0  0  0
  2 32  1  0  0  0  0
  2 15  1  0  0  0  0
  3 21  1  0  0  0  0
  3  4  1  0  0  0  0
  5  7  1  0  0  0  0
  6 13  1  0  0  0  0
  6 32  1  0  0  0  0
  7  6  2  0  0  0  0
  8 10  2  0  0  0  0
  8  7  1  0  0  0  0
  9  8  1  0  0  0  0
 10 12  1  0  0  0  0
 11 10  1  0  0  0  0
 12  1  1  0  0  0  0
 12 13  2  0  0  0  0
 13 14  1  0  0  0  0
 15 16  1  0  0  0  0
 15 17  1  0  0  0  0
 18 15  1  0  0  0  0
 18 19  1  0  0  0  0
 20 18  1  0  0  0  0
 21 22  1  0  0  0  0
 21 18  1  0  0  0  0
 23 21  1  0  0  0  0
 24  3  1  0  0  0  0
 24 26  1  0  0  0  0
 25 24  1  0  0  0  0
 27 24  1  0  0  0  0
 28 29  1  0  0  0  0
 28  3  1  0  0  0  0
 30 28  1  0  0  0  0
 31 28  1  0  0  0  0
 32 33  1  0  0  0  0
M  CHG  2   3   1   5  -1
M  END
