1,2
 OpenBabel05122313063D

 18 17  0  0  1  0  0  0  0  0999 V2000
    1.2161   -1.6014   -0.0013 O   0  0  0  0  0  1  0  0  0  0  0  0
    1.6028    1.3031   -0.0019 N   0  0  0  0  0  2  0  0  0  0  0  0
    2.5090   -1.5852    0.0026 C   0  0  2  0  0  3  0  0  0  0  0  0
    1.3393    2.7374   -0.0061 C   0  0  0  0  0  0  0  0  0  0  0  0
    1.7696    3.2335    0.8913 H   0  0  0  0  0  0  0  0  0  0  0  0
    0.2504    2.9067   -0.0092 H   0  0  0  0  0  0  0  0  0  0  0  0
    1.7746    3.2291   -0.9035 H   0  0  0  0  0  0  0  0  0  0  0  0
    2.8725    0.9094    0.0017 C   0  0  0  0  0  0  0  0  0  0  0  0
    3.3123   -0.4475    0.0047 C   0  0  0  0  0  0  0  0  0  0  0  0
    4.3978   -0.6087    0.0080 H   0  0  0  0  0  0  0  0  0  0  0  0
    3.9689    1.9559    0.0023 C   0  0  0  0  0  0  0  0  0  0  0  0
    3.8966    2.6146   -0.8878 H   0  0  0  0  0  0  0  0  0  0  0  0
    4.9675    1.4850    0.0061 H   0  0  0  0  0  0  0  0  0  0  0  0
    3.8917    2.6186    0.8890 H   0  0  0  0  0  0  0  0  0  0  0  0
    3.1334   -2.9630    0.0045 C   0  0  0  0  0  0  0  0  0  0  0  0
    2.7878   -3.5290    0.8940 H   0  0  0  0  0  0  0  0  0  0  0  0
    4.2379   -2.9231    0.0086 H   0  0  0  0  0  0  0  0  0  0  0  0
    2.7946   -3.5284   -0.8881 H   0  0  0  0  0  0  0  0  0  0  0  0
  2  8  1  0  0  0  0
  3  1  1  6  0  0  0
  3 15  1  0  0  0  0
  3  9  1  0  0  0  0
  4  2  1  0  0  0  0
  4  5  1  0  0  0  0
  6  4  1  0  0  0  0
  7  4  1  0  0  0  0
  8 11  1  0  0  0  0
  8  9  2  0  0  0  0
  9 10  1  0  0  0  0
 11 13  1  0  0  0  0
 11 14  1  0  0  0  0
 12 11  1  0  0  0  0
 15 17  1  0  0  0  0
 15 16  1  0  0  0  0
 18 15  1  0  0  0  0
M  END
