1,2
 OpenBabel05122313063D

 16 17  0  0  1  0  0  0  0  0999 V2000
   -2.2646   -0.4929   -0.9896 N   0  0  0  0  0  2  0  0  0  0  0  0
   -0.1983   -0.1122   -2.6921 O   0  5  0  0  0  0  0  0  0  0  0  0
   -1.5892   -0.2498   -4.5049 O   0  0  0  0  0  0  0  0  0  0  0  0
   -3.7531   -0.6429   -2.6626 O   0  0  0  0  0  0  0  0  0  0  0  0
   -1.3250   -0.2522   -3.3061 C   0  0  0  0  0  0  0  0  0  0  0  0
   -2.4592   -0.4591   -2.2956 C   0  0  2  0  0  3  0  0  0  0  0  0
   -3.5159   -0.7182   -0.4212 C   0  0  0  0  0  0  0  0  0  0  0  0
   -4.4439   -0.8092   -1.4855 C   0  0  0  0  0  0  0  0  0  0  0  0
   -5.8090   -1.0303   -1.3009 C   0  0  0  0  0  0  0  0  0  0  0  0
   -6.5046   -1.0949   -2.1485 H   0  0  0  0  0  0  0  0  0  0  0  0
   -6.2290   -1.1643    0.0327 C   0  0  0  0  0  0  0  0  0  0  0  0
   -7.2945   -1.3404    0.2424 H   0  0  0  0  0  0  0  0  0  0  0  0
   -5.3178   -1.0807    1.1124 C   0  0  0  0  0  0  0  0  0  0  0  0
   -5.6967   -1.1948    2.1390 H   0  0  0  0  0  0  0  0  0  0  0  0
   -3.9488   -0.8581    0.9079 C   0  0  0  0  0  0  0  0  0  0  0  0
   -3.2379   -0.7958    1.7421 H   0  0  0  0  0  0  0  0  0  0  0  0
  1  7  1  0  0  0  0
  3  5  2  0  0  0  0
  4  6  1  0  0  0  0
  4  8  1  0  0  0  0
  5  2  1  0  0  0  0
  6  5  1  6  0  0  0
  6  1  1  0  0  0  0
  7 15  1  0  0  0  0
  8  9  1  0  0  0  0
  8  7  2  0  0  0  0
  9 11  2  0  0  0  0
 10  9  1  0  0  0  0
 11 12  1  0  0  0  0
 11 13  1  0  0  0  0
 13 14  1  0  0  0  0
 15 13  2  0  0  0  0
 15 16  1  0  0  0  0
M  CHG  1   2  -1
M  END
