1,2
 OpenBabel05122313063D

 32 34  0  0  0  0  0  0  0  0999 V2000
   -1.2950    1.0601   -1.1049 O   0  5  0  0  0  0  0  0  0  0  0  0
   -1.3749   -1.1928    0.7158 N   0  0  0  0  0  2  0  0  0  0  0  0
   -0.8009   -2.3379    1.4453 C   0  0  0  0  0  0  0  0  0  0  0  0
   -1.5019   -2.6702    2.2412 H   0  0  0  0  0  0  0  0  0  0  0  0
    0.4890   -1.9277    2.1638 C   0  0  0  0  0  0  0  0  0  0  0  0
    1.2797   -1.6233    1.4487 H   0  0  0  0  0  0  0  0  0  0  0  0
    0.8828   -2.7816    2.7500 H   0  0  0  0  0  0  0  0  0  0  0  0
    0.3104   -1.0858    2.8610 H   0  0  0  0  0  0  0  0  0  0  0  0
   -0.5547   -3.5027    0.4738 C   0  0  0  0  0  0  0  0  0  0  0  0
   -1.5001   -3.8357    0.0006 H   0  0  0  0  0  0  0  0  0  0  0  0
   -0.1021   -4.3684    0.9987 H   0  0  0  0  0  0  0  0  0  0  0  0
    0.1337   -3.1722   -0.3302 H   0  0  0  0  0  0  0  0  0  0  0  0
   -2.6955   -1.1003    0.5051 C   0  0  0  0  0  0  0  0  0  0  0  0
   -3.5932   -2.1040    1.0632 C   0  0  0  0  0  0  0  0  0  0  0  0
   -3.1629   -2.9730    1.5716 H   0  0  0  0  0  0  0  0  0  0  0  0
   -4.9543   -2.0095    0.9938 C   0  0  0  0  0  0  0  0  0  0  0  0
   -5.5816   -2.7908    1.4523 H   0  0  0  0  0  0  0  0  0  0  0  0
   -5.5985   -0.9189    0.3279 C   0  0  0  0  0  0  0  0  0  0  0  0
   -4.7697    0.0601   -0.3207 C   0  0  0  0  0  0  0  0  0  0  0  0
   -5.4495    1.1087   -1.0372 C   0  0  0  0  0  0  0  0  0  0  0  0
   -4.6712    2.0769   -1.7472 C   0  0  0  0  0  0  0  0  0  0  0  0
   -5.1915    2.8754   -2.2999 H   0  0  0  0  0  0  0  0  0  0  0  0
   -3.3056    2.0013   -1.7470 C   0  0  0  0  0  0  0  0  0  0  0  0
   -2.6811    2.7213   -2.2954 H   0  0  0  0  0  0  0  0  0  0  0  0
   -2.5792    0.9822   -1.0177 C   0  0  0  0  0  0  0  0  0  0  0  0
   -3.3273   -0.0139   -0.2666 C   0  0  0  0  0  0  0  0  0  0  0  0
   -6.8628    1.1713   -1.0520 C   0  0  0  0  0  3  0  0  0  0  0  0
   -7.3410    1.9946   -1.6058 H   0  0  0  0  0  0  0  0  0  0  0  0
   -7.6444    0.2179   -0.3940 C   0  0  0  0  0  0  0  0  0  0  0  0
   -8.7420    0.2814   -0.4174 H   0  0  0  0  0  0  0  0  0  0  0  0
   -7.0054   -0.8276    0.2845 C   0  0  0  0  0  0  0  0  0  0  0  0
   -7.5969   -1.6037    0.7953 H   0  0  0  0  0  0  0  0  0  0  0  0
  1 25  1  0  0  0  0
  2  3  1  0  0  0  0
  3  5  1  0  0  0  0
  3  4  1  0  0  0  0
  5  7  1  0  0  0  0
  5  8  1  0  0  0  0
  6  5  1  0  0  0  0
  9 11  1  0  0  0  0
  9  3  1  0  0  0  0
 10  9  1  0  0  0  0
 12  9  1  0  0  0  0
 13  2  1  0  0  0  0
 13 14  1  0  0  0  0
 14 15  1  0  0  0  0
 16 14  2  0  0  0  0
 16 17  1  0  0  0  0
 18 16  1  0  0  0  0
 19 26  1  0  0  0  0
 19 18  2  0  0  0  0
 20 19  1  0  0  0  0
 21 23  1  0  0  0  0
 21 20  2  0  0  0  0
 22 21  1  0  0  0  0
 23 25  2  0  0  0  0
 24 23  1  0  0  0  0
 25 26  1  0  0  0  0
 26 13  2  0  0  0  0
 27 20  1  0  0  0  0
 27 29  1  0  0  0  0
 28 27  1  0  0  0  0
 29 31  2  0  0  0  0
 30 29  1  0  0  0  0
 31 18  1  0  0  0  0
 31 32  1  0  0  0  0
M  CHG  1   1  -1
M  END
