2,3
 OpenBabel05122313063D

 18 18  0  0  1  0  0  0  0  0999 V2000
    6.6614   -0.4433    1.1438 Cl  0  0  0  0  0  0  0  0  0  0  0  0
   -0.4670   -0.4437   -2.6905 O   0  0  0  0  0  1  0  0  0  0  0  0
    1.2085   -0.2489   -1.2797 N   0  0  0  0  0  2  0  0  0  0  0  0
    0.8077   -0.4571   -2.5423 C   0  0  2  0  0  3  0  0  0  0  0  0
    1.7046   -0.6411   -3.7359 C   0  0  0  0  0  0  0  0  0  0  0  0
    1.8566   -1.7206   -3.9424 H   0  0  0  0  0  0  0  0  0  0  0  0
    2.6961   -0.1718   -3.5927 H   0  0  0  0  0  0  0  0  0  0  0  0
    1.1981   -0.2075   -4.6188 H   0  0  0  0  0  0  0  0  0  0  0  0
    2.4993   -0.3066   -0.7465 C   0  0  0  0  0  0  0  0  0  0  0  0
    2.8438    0.5592    0.3189 C   0  0  0  0  0  0  0  0  0  0  0  0
    2.0904    1.2628    0.6966 H   0  0  0  0  0  0  0  0  0  0  0  0
    4.1145    0.5204    0.8985 C   0  0  0  0  0  0  0  0  0  0  0  0
    4.3710    1.1980    1.7249 H   0  0  0  0  0  0  0  0  0  0  0  0
    5.0701   -0.3938    0.4229 C   0  0  0  0  0  0  0  0  0  0  0  0
    4.7470   -1.2784   -0.6169 C   0  0  0  0  0  0  0  0  0  0  0  0
    5.4919   -2.0086   -0.9633 H   0  0  0  0  0  0  0  0  0  0  0  0
    3.4683   -1.2407   -1.1882 C   0  0  0  0  0  0  0  0  0  0  0  0
    3.2112   -1.9704   -1.9676 H   0  0  0  0  0  0  0  0  0  0  0  0
  3  9  1  0  0  0  0
  4  2  1  6  0  0  0
  4  3  1  0  0  0  0
  5  7  1  0  0  0  0
  5  4  1  0  0  0  0
  6  5  1  0  0  0  0
  8  5  1  0  0  0  0
  9 10  1  0  0  0  0
 10 11  1  0  0  0  0
 10 12  2  0  0  0  0
 12 13  1  0  0  0  0
 14 12  1  0  0  0  0
 14  1  1  0  0  0  0
 15 14  2  0  0  0  0
 16 15  1  0  0  0  0
 17  9  2  0  0  0  0
 17 15  1  0  0  0  0
 18 17  1  0  0  0  0
M  END
