4,5
 OpenBabel05122313063D

 35 36  0  0  1  0  0  0  0  0999 V2000
   -3.1006   -3.1640   -0.1507 O   0  0  0  0  0  0  0  0  0  0  0  0
   -5.7621   -3.4096   -0.0079 O   0  0  0  0  0  0  0  0  0  0  0  0
   -5.1182   -3.2087   -0.7171 H   0  0  0  0  0  0  0  0  0  0  0  0
   -0.9020    1.6333    0.0448 O   0  5  0  0  0  0  0  0  0  0  0  0
   -1.4888   -0.8635   -0.8316 N   0  0  0  0  0  2  0  0  0  0  0  0
   -1.3430   -2.1974   -1.4254 C   0  0  0  0  0  0  0  0  0  0  0  0
   -0.2969   -2.3464   -1.7401 H   0  0  0  0  0  0  0  0  0  0  0  0
   -1.9985   -2.2823   -2.3188 H   0  0  0  0  0  0  0  0  0  0  0  0
   -1.7194   -3.2889   -0.4275 C   0  0  0  0  0  0  0  0  0  0  0  0
   -1.4808   -4.2931   -0.8571 H   0  0  0  0  0  0  0  0  0  0  0  0
   -1.1139   -3.1558    0.4978 H   0  0  0  0  0  0  0  0  0  0  0  0
   -3.5967   -3.8399    0.9936 C   0  0  0  0  0  0  0  0  0  0  0  0
   -2.9651   -3.6316    1.8899 H   0  0  0  0  0  0  0  0  0  0  0  0
   -3.6040   -4.9440    0.8208 H   0  0  0  0  0  0  0  0  0  0  0  0
   -5.0112   -3.3054    1.1884 C   0  0  0  0  0  0  0  0  0  0  0  0
   -5.5323   -3.8829    1.9807 H   0  0  0  0  0  0  0  0  0  0  0  0
   -4.9429   -2.2438    1.5341 H   0  0  0  0  0  0  0  0  0  0  0  0
   -2.7174   -0.3881   -0.8292 C   0  0  0  0  0  0  0  0  0  0  0  0
   -3.4855   -1.0218   -1.3026 H   0  0  0  0  0  0  0  0  0  0  0  0
   -3.1593    0.8714   -0.3279 C   0  0  0  0  0  0  0  0  0  0  0  0
   -4.5762    1.1806   -0.2511 C   0  0  1  0  0  3  0  0  0  0  0  0
   -5.6006    0.2065   -0.4212 C   0  0  0  0  0  0  0  0  0  0  0  0
   -5.3514   -0.8523   -0.5788 H   0  0  0  0  0  0  0  0  0  0  0  0
   -6.9470    0.5507   -0.3367 C   0  0  0  0  0  0  0  0  0  0  0  0
   -7.7071   -0.2359   -0.4597 H   0  0  0  0  0  0  0  0  0  0  0  0
   -7.3391    1.8846   -0.0749 C   0  0  0  0  0  0  0  0  0  0  0  0
   -8.4057    2.1466   -0.0113 H   0  0  0  0  0  0  0  0  0  0  0  0
   -6.3623    2.8538    0.1221 C   0  0  0  0  0  0  0  0  0  0  0  0
   -6.6448    3.8942    0.3482 H   0  0  0  0  0  0  0  0  0  0  0  0
   -4.9810    2.5282    0.0499 C   0  0  0  0  0  0  0  0  0  0  0  0
   -3.9698    3.5154    0.2917 C   0  0  0  0  0  0  0  0  0  0  0  0
   -4.2892    4.5473    0.5091 H   0  0  0  0  0  0  0  0  0  0  0  0
   -2.6307    3.2012    0.2802 C   0  0  0  0  0  0  0  0  0  0  0  0
   -1.8591    3.9581    0.4839 H   0  0  0  0  0  0  0  0  0  0  0  0
   -2.1852    1.8592    0.0058 C   0  0  0  0  0  0  0  0  0  0  0  0
  1 12  1  0  0  0  0
  2 15  1  0  0  0  0
  3  2  1  0  0  0  0
  5 18  1  0  0  0  0
  6  5  1  0  0  0  0
  6  9  1  0  0  0  0
  7  6  1  0  0  0  0
  8  6  1  0  0  0  0
  9  1  1  0  0  0  0
  9 11  1  0  0  0  0
 10  9  1  0  0  0  0
 12 15  1  0  0  0  0
 12 13  1  0  0  0  0
 14 12  1  0  0  0  0
 15 17  1  0  0  0  0
 15 16  1  0  0  0  0
 18 20  2  0  0  0  0
 19 18  1  0  0  0  0
 20 21  1  0  0  0  0
 20 35  1  0  0  0  0
 21 22  1  1  0  0  0
 21 30  1  0  0  0  0
 22 24  2  0  0  0  0
 23 22  1  0  0  0  0
 24 26  1  0  0  0  0
 25 24  1  0  0  0  0
 26 27  1  0  0  0  0
 26 28  2  0  0  0  0
 28 29  1  0  0  0  0
 30 28  1  0  0  0  0
 30 31  2  0  0  0  0
 31 32  1  0  0  0  0
 33 31  1  0  0  0  0
 33 34  1  0  0  0  0
 35  4  1  0  0  0  0
 35 33  2  0  0  0  0
M  CHG  1   4  -1
M  END
