1,2
 OpenBabel05122313063D

 28 28  0  0  1  0  0  0  0  0999 V2000
    1.6605    0.9255   -1.2321 O   0  5  0  0  0  0  0  0  0  0  0  0
   -0.6975   -0.5597   -1.4238 N   0  0  0  0  0  2  0  0  0  0  0  0
    3.5085    0.3919   -2.6224 C   0  0  0  0  0  0  0  0  0  0  0  0
    4.1751    0.1933   -1.7575 H   0  0  0  0  0  0  0  0  0  0  0  0
    3.6474    1.4568   -2.9003 H   0  0  0  0  0  0  0  0  0  0  0  0
    3.8083   -0.2527   -3.4689 H   0  0  0  0  0  0  0  0  0  0  0  0
    2.0845    0.1598   -2.1915 C   0  0  0  0  0  0  0  0  0  0  0  0
    1.2914   -0.8180   -2.7905 C   0  0  0  0  0  0  0  0  0  0  0  0
    1.7360   -1.3911   -3.6145 H   0  0  0  0  0  0  0  0  0  0  0  0
   -0.0507   -1.1533   -2.4221 C   0  0  2  0  0  3  0  0  0  0  0  0
   -0.7346   -2.2342   -3.2350 C   0  0  0  0  0  0  0  0  0  0  0  0
   -1.7306   -1.8905   -3.5792 H   0  0  0  0  0  0  0  0  0  0  0  0
   -0.9189   -3.1372   -2.6186 H   0  0  0  0  0  0  0  0  0  0  0  0
   -0.1281   -2.5252   -4.1113 H   0  0  0  0  0  0  0  0  0  0  0  0
   -2.0161   -0.9842   -1.1001 C   0  0  0  0  0  0  0  0  0  0  0  0
   -2.2344   -2.1344   -0.3143 C   0  0  0  0  0  0  0  0  0  0  0  0
   -1.3688   -2.7283    0.0145 H   0  0  0  0  0  0  0  0  0  0  0  0
   -3.5318   -2.5010    0.0655 C   0  0  0  0  0  0  0  0  0  0  0  0
   -3.6769   -3.3999    0.6858 H   0  0  0  0  0  0  0  0  0  0  0  0
   -4.6526   -1.7364   -0.3175 C   0  0  0  0  0  0  0  0  0  0  0  0
   -4.4226   -0.5864   -1.1010 C   0  0  0  0  0  0  0  0  0  0  0  0
   -5.2778    0.0339   -1.4140 H   0  0  0  0  0  0  0  0  0  0  0  0
   -3.1291   -0.2071   -1.4827 C   0  0  0  0  0  0  0  0  0  0  0  0
   -2.9605    0.7046   -2.0727 H   0  0  0  0  0  0  0  0  0  0  0  0
   -6.0421   -2.1065    0.1379 C   0  0  0  0  0  0  0  0  0  0  0  0
   -6.1510   -3.2007    0.2745 H   0  0  0  0  0  0  0  0  0  0  0  0
   -6.8128   -1.7707   -0.5839 H   0  0  0  0  0  0  0  0  0  0  0  0
   -6.2835   -1.6322    1.1147 H   0  0  0  0  0  0  0  0  0  0  0  0
  2 15  1  0  0  0  0
  3  7  1  0  0  0  0
  3  4  1  0  0  0  0
  5  3  1  0  0  0  0
  6  3  1  0  0  0  0
  7  1  1  0  0  0  0
  8  7  2  0  0  0  0
  9  8  1  0  0  0  0
 10  8  1  6  0  0  0
 10  2  1  0  0  0  0
 11 13  1  0  0  0  0
 11 10  1  0  0  0  0
 12 11  1  0  0  0  0
 14 11  1  0  0  0  0
 15 16  1  0  0  0  0
 16 17  1  0  0  0  0
 16 18  2  0  0  0  0
 18 19  1  0  0  0  0
 20 18  1  0  0  0  0
 20 25  1  0  0  0  0
 21 20  2  0  0  0  0
 22 21  1  0  0  0  0
 23 21  1  0  0  0  0
 23 15  2  0  0  0  0
 24 23  1  0  0  0  0
 25 26  1  0  0  0  0
 25 28  1  0  0  0  0
 27 25  1  0  0  0  0
M  CHG  1   1  -1
M  END
