1,15
 OpenBabel05122313063D

 21 22  0  0  1  0  0  0  0  0999 V2000
    1.1478    1.6671   -0.0548 O   0  5  0  0  0  0  0  0  0  0  0  0
    2.4274    1.3672   -0.1330 C   0  0  0  0  0  0  0  0  0  0  0  0
    3.4637    2.3202   -0.1907 C   0  0  0  0  0  0  0  0  0  0  0  0
    4.8100    1.9061   -0.2637 C   0  0  0  0  0  0  0  0  0  0  0  0
    5.1984    0.5585   -0.2881 C   0  0  2  0  0  3  0  0  0  0  0  0
    6.9225    0.1144   -0.4013 S   0  0  0  0  0  0  0  0  0  0  0  0
    7.3163   -0.1659    1.3660 C   0  0  0  0  0  0  0  0  0  0  0  0
    6.6988   -0.9814    1.7919 H   0  0  0  0  0  0  0  0  0  0  0  0
    8.3834   -0.4598    1.4099 H   0  0  0  0  0  0  0  0  0  0  0  0
    7.1688    0.7602    1.9549 H   0  0  0  0  0  0  0  0  0  0  0  0
    4.1785   -0.4469   -0.2510 C   0  0  0  0  0  0  0  0  0  0  0  0
    4.4015   -1.8529   -0.2951 C   0  0  0  0  0  0  0  0  0  0  0  0
    3.3294   -2.7355   -0.2422 C   0  0  0  0  0  0  0  0  0  0  0  0
    2.0090   -2.2352   -0.1476 C   0  0  0  0  0  0  0  0  0  0  0  0
    1.7791   -0.9211   -0.1153 N   0  0  0  0  0  2  0  0  0  0  0  0
    2.8151   -0.0194   -0.1651 C   0  0  0  0  0  0  0  0  0  0  0  0
    1.1194   -2.8823   -0.1014 H   0  0  0  0  0  0  0  0  0  0  0  0
    3.4877   -3.8227   -0.2779 H   0  0  0  0  0  0  0  0  0  0  0  0
    5.4405   -2.2070   -0.3857 H   0  0  0  0  0  0  0  0  0  0  0  0
    5.6022    2.6695   -0.3034 H   0  0  0  0  0  0  0  0  0  0  0  0
    3.2039    3.3882   -0.1750 H   0  0  0  0  0  0  0  0  0  0  0  0
  2  1  1  0  0  0  0
  3 21  1  0  0  0  0
  3  2  1  0  0  0  0
  4  3  2  0  0  0  0
  5  6  1  6  0  0  0
  5  4  1  0  0  0  0
  5 11  1  0  0  0  0
  6  7  1  0  0  0  0
  7  9  1  0  0  0  0
  7  8  1  0  0  0  0
  7 10  1  0  0  0  0
 11 16  1  0  0  0  0
 12 11  2  0  0  0  0
 12 13  1  0  0  0  0
 13 14  2  0  0  0  0
 14 15  1  0  0  0  0
 14 17  1  0  0  0  0
 16  2  2  0  0  0  0
 16 15  1  0  0  0  0
 18 13  1  0  0  0  0
 19 12  1  0  0  0  0
 20  4  1  0  0  0  0
M  CHG  1   1  -1
M  END
