3,4
 OpenBabel05122313063D

 32 33  0  0  1  0  0  0  0  0999 V2000
   -3.1454   -0.6723    2.1930 Cl  0  0  0  0  0  0  0  0  0  0  0  0
   -7.7776    0.4860   -0.3393 Cl  0  0  0  0  0  0  0  0  0  0  0  0
   -1.1280   -0.2651   -0.2073 O   0  5  0  0  0  0  0  0  0  0  0  0
    1.2098    1.4928    0.0855 N   0  0  0  0  0  2  0  0  0  0  0  0
   -5.3525   -0.0220    0.7818 C   0  0  0  0  0  0  0  0  0  0  0  0
   -5.8984   -0.5713    1.5594 H   0  0  0  0  0  0  0  0  0  0  0  0
    4.7873    2.1833   -0.7151 C   0  0  0  0  0  0  0  0  0  0  0  0
    5.4701    2.1007   -1.5749 H   0  0  0  0  0  0  0  0  0  0  0  0
   -3.9539    0.0724    0.8309 C   0  0  0  0  0  0  0  0  0  0  0  0
   -6.0395    0.6062   -0.2682 C   0  0  0  0  0  0  0  0  0  0  0  0
    0.2539    2.4216    0.0409 C   0  0  2  0  0  3  0  0  0  0  0  0
   -1.7257    0.8704   -0.1397 C   0  0  0  0  0  0  0  0  0  0  0  0
    2.5660    1.9042    0.2369 C   0  0  0  0  0  0  0  0  0  0  0  0
   -5.3479    1.3293   -1.2525 C   0  0  0  0  0  0  0  0  0  0  0  0
   -5.9010    1.8132   -2.0689 H   0  0  0  0  0  0  0  0  0  0  0  0
    3.4475    1.7971   -0.8590 C   0  0  0  0  0  0  0  0  0  0  0  0
    3.0430    1.4075   -1.8064 H   0  0  0  0  0  0  0  0  0  0  0  0
   -1.1329    2.1349   -0.0803 C   0  0  0  0  0  0  0  0  0  0  0  0
   -1.8141    2.9949   -0.0573 H   0  0  0  0  0  0  0  0  0  0  0  0
   -3.2233    0.7854   -0.1444 C   0  0  0  0  0  0  0  0  0  0  0  0
   -3.9525    1.4108   -1.1763 C   0  0  0  0  0  0  0  0  0  0  0  0
   -3.3933    1.9594   -1.9490 H   0  0  0  0  0  0  0  0  0  0  0  0
    5.2605    2.6791    0.5133 C   0  0  0  0  0  0  0  0  0  0  0  0
    6.3133    2.9806    0.6205 H   0  0  0  0  0  0  0  0  0  0  0  0
    3.0388    2.4027    1.4671 C   0  0  0  0  0  0  0  0  0  0  0  0
    2.3463    2.4696    2.3197 H   0  0  0  0  0  0  0  0  0  0  0  0
    4.3806    2.7910    1.6013 C   0  0  0  0  0  0  0  0  0  0  0  0
    4.7430    3.1747    2.5673 H   0  0  0  0  0  0  0  0  0  0  0  0
    0.6315    3.8875    0.1169 C   0  0  0  0  0  0  0  0  0  0  0  0
    0.9125    4.1882    1.1462 H   0  0  0  0  0  0  0  0  0  0  0  0
   -0.2178    4.5174   -0.2033 H   0  0  0  0  0  0  0  0  0  0  0  0
    1.5050    4.1044   -0.5284 H   0  0  0  0  0  0  0  0  0  0  0  0
  2 10  1  0  0  0  0
  3 12  1  0  0  0  0
  4 13  1  0  0  0  0
  5  9  1  0  0  0  0
  5  6  1  0  0  0  0
  7 23  1  0  0  0  0
  8  7  1  0  0  0  0
  9  1  1  0  0  0  0
 10  5  2  0  0  0  0
 11 18  1  6  0  0  0
 11  4  1  0  0  0  0
 11 29  1  0  0  0  0
 12 18  2  0  0  0  0
 13 25  2  0  0  0  0
 14 21  2  0  0  0  0
 14 10  1  0  0  0  0
 15 14  1  0  0  0  0
 16  7  2  0  0  0  0
 16 13  1  0  0  0  0
 17 16  1  0  0  0  0
 18 19  1  0  0  0  0
 20 12  1  0  0  0  0
 20  9  2  0  0  0  0
 21 20  1  0  0  0  0
 22 21  1  0  0  0  0
 23 24  1  0  0  0  0
 23 27  2  0  0  0  0
 25 27  1  0  0  0  0
 25 26  1  0  0  0  0
 27 28  1  0  0  0  0
 29 30  1  0  0  0  0
 31 29  1  0  0  0  0
 32 29  1  0  0  0  0
M  CHG  1   3  -1
M  END
