1,4
 OpenBabel05122313063D

 34 35  0  0  1  0  0  0  0  0999 V2000
    0.4161   -1.5365   -0.2249 O   0  5  0  0  0  0  0  0  0  0  0  0
    2.7051    5.1609    0.2095 O   0  0  0  0  0  0  0  0  0  0  0  0
    4.6892   -3.5858    0.4635 O   0  0  0  0  0  0  0  0  0  0  0  0
   -0.3332    1.1890   -0.2721 N   0  0  0  0  0  2  0  0  0  0  0  0
   -0.9207    2.0282   -0.3336 H   0  0  0  0  0  0  0  0  0  0  0  0
    1.8927    0.3332   -0.2794 N   0  0  0  0  0  0  0  0  0  0  0  0
    1.5225    2.6156   -0.1957 N   0  0  0  0  0  0  0  0  0  0  0  0
    2.6307   -1.8514   -0.3927 N   0  0  0  0  0  0  0  0  0  0  0  0
    0.9925    1.3326   -0.2533 C   0  0  2  0  0  3  0  0  0  0  0  0
    1.5821   -0.9657   -0.2987 C   0  0  0  0  0  0  0  0  0  0  0  0
    0.6895    3.8060   -0.1123 C   0  0  0  0  0  0  0  0  0  0  0  0
   -0.2656    3.5713    0.3980 H   0  0  0  0  0  0  0  0  0  0  0  0
    0.4484    4.1996   -1.1300 H   0  0  0  0  0  0  0  0  0  0  0  0
    1.4088    4.8874    0.7034 C   0  0  0  0  0  0  0  0  0  0  0  0
    0.8355    5.8351    0.6616 H   0  0  0  0  0  0  0  0  0  0  0  0
    1.4616    4.5529    1.7701 H   0  0  0  0  0  0  0  0  0  0  0  0
    3.5018    3.9856    0.2426 C   0  0  0  0  0  0  0  0  0  0  0  0
    3.6115    3.6221    1.2950 H   0  0  0  0  0  0  0  0  0  0  0  0
    4.5039    4.2641   -0.1403 H   0  0  0  0  0  0  0  0  0  0  0  0
    2.8961    2.8784   -0.6132 C   0  0  0  0  0  0  0  0  0  0  0  0
    2.9144    3.1938   -1.6847 H   0  0  0  0  0  0  0  0  0  0  0  0
    3.4656    1.9367   -0.5186 H   0  0  0  0  0  0  0  0  0  0  0  0
    4.0220   -1.4376   -0.4871 C   0  0  0  0  0  0  0  0  0  0  0  0
    4.0697   -0.3440   -0.3396 H   0  0  0  0  0  0  0  0  0  0  0  0
    4.4150   -1.6788   -1.5025 H   0  0  0  0  0  0  0  0  0  0  0  0
    4.8489   -2.1805    0.5654 C   0  0  0  0  0  0  0  0  0  0  0  0
    5.9288   -1.9679    0.4302 H   0  0  0  0  0  0  0  0  0  0  0  0
    4.5434   -1.8262    1.5822 H   0  0  0  0  0  0  0  0  0  0  0  0
    3.3278   -3.9538    0.6318 C   0  0  0  0  0  0  0  0  0  0  0  0
    2.9703   -3.6644    1.6517 H   0  0  0  0  0  0  0  0  0  0  0  0
    3.2796   -5.0577    0.5444 H   0  0  0  0  0  0  0  0  0  0  0  0
    2.4294   -3.2955   -0.4174 C   0  0  0  0  0  0  0  0  0  0  0  0
    2.6963   -3.6872   -1.4266 H   0  0  0  0  0  0  0  0  0  0  0  0
    1.3625   -3.5114   -0.2282 H   0  0  0  0  0  0  0  0  0  0  0  0
  2 17  1  0  0  0  0
  2 14  1  0  0  0  0
  3 26  1  0  0  0  0
  3 29  1  0  0  0  0
  4  9  1  0  0  0  0
  5  4  1  0  0  0  0
  7 11  1  0  0  0  0
  8 10  1  0  0  0  0
  9  6  1  1  0  0  0
  9  7  1  0  0  0  0
 10  6  2  0  0  0  0
 10  1  1  0  0  0  0
 11 12  1  0  0  0  0
 11 14  1  0  0  0  0
 13 11  1  0  0  0  0
 14 16  1  0  0  0  0
 15 14  1  0  0  0  0
 17 18  1  0  0  0  0
 19 17  1  0  0  0  0
 20 22  1  0  0  0  0
 20  7  1  0  0  0  0
 20 17  1  0  0  0  0
 21 20  1  0  0  0  0
 23  8  1  0  0  0  0
 23 24  1  0  0  0  0
 23 26  1  0  0  0  0
 25 23  1  0  0  0  0
 26 28  1  0  0  0  0
 27 26  1  0  0  0  0
 29 30  1  0  0  0  0
 31 29  1  0  0  0  0
 32  8  1  0  0  0  0
 32 34  1  0  0  0  0
 32 29  1  0  0  0  0
 33 32  1  0  0  0  0
M  CHG  1   1  -1
M  END
