1,2
 OpenBabel05122313063D

 33 34  0  0  1  0  0  0  0  0999 V2000
   -1.0069   -1.0705    0.7728 O   0  0  0  0  0  1  0  0  0  0  0  0
   -0.6613    1.2786   -0.3265 N   0  0  0  0  0  0  0  0  0  0  0  0
   -0.6883    2.5541   -0.7681 C   0  0  0  0  0  0  0  0  0  0  0  0
   -2.0244    3.0721   -0.6762 C   0  0  0  0  0  0  0  0  0  0  0  0
   -2.8413    2.0462   -0.1640 C   0  0  0  0  0  0  0  0  0  0  0  0
   -1.9729    0.9177    0.0379 C   0  0  0  0  0  3  0  0  0  0  0  0
   -2.0967   -0.3907    0.5672 C   0  0  1  0  0  3  0  0  0  0  0  0
    0.5283    3.2814   -1.2458 C   0  0  0  0  0  0  0  0  0  0  0  0
   -2.4619    4.4488   -1.0902 C   0  0  0  0  0  0  0  0  0  0  0  0
   -2.9201    4.5267   -2.5559 C   0  0  0  0  0  0  0  0  0  0  0  0
   -3.3662   -1.0694    0.9092 C   0  0  0  0  0  0  0  0  0  0  0  0
   -4.4898   -0.9879    0.0585 C   0  0  0  0  0  0  0  0  0  0  0  0
   -5.6661   -1.6809    0.3732 C   0  0  0  0  0  0  0  0  0  0  0  0
   -5.7354   -2.4576    1.5409 C   0  0  0  0  0  0  0  0  0  0  0  0
   -4.6156   -2.5577    2.3843 C   0  0  0  0  0  0  0  0  0  0  0  0
   -3.4335   -1.8797    2.0647 C   0  0  0  0  0  0  0  0  0  0  0  0
   -4.2985    2.1811    0.1572 C   0  0  0  0  0  0  0  0  0  0  0  0
   -4.4228   -0.4029   -0.8693 H   0  0  0  0  0  0  0  0  0  0  0  0
   -6.5336   -1.6197   -0.3008 H   0  0  0  0  0  0  0  0  0  0  0  0
   -6.6627   -2.9949    1.7906 H   0  0  0  0  0  0  0  0  0  0  0  0
   -4.6660   -3.1723    3.2955 H   0  0  0  0  0  0  0  0  0  0  0  0
   -2.5471   -1.9653    2.7102 H   0  0  0  0  0  0  0  0  0  0  0  0
   -3.2903    4.7840   -0.4307 H   0  0  0  0  0  0  0  0  0  0  0  0
   -1.6378    5.1737   -0.9205 H   0  0  0  0  0  0  0  0  0  0  0  0
    1.2310    3.5012   -0.4144 H   0  0  0  0  0  0  0  0  0  0  0  0
    0.2533    4.2466   -1.7090 H   0  0  0  0  0  0  0  0  0  0  0  0
    1.0910    2.6922   -1.9972 H   0  0  0  0  0  0  0  0  0  0  0  0
   -2.1030    4.2347   -3.2473 H   0  0  0  0  0  0  0  0  0  0  0  0
   -3.2432    5.5523   -2.8255 H   0  0  0  0  0  0  0  0  0  0  0  0
   -3.7713    3.8409   -2.7427 H   0  0  0  0  0  0  0  0  0  0  0  0
   -4.5408    3.2311    0.4161 H   0  0  0  0  0  0  0  0  0  0  0  0
   -4.9500    1.9107   -0.7010 H   0  0  0  0  0  0  0  0  0  0  0  0
   -4.6024    1.5395    1.0053 H   0  0  0  0  0  0  0  0  0  0  0  0
  2  6  1  0  0  0  0
  3  4  1  0  0  0  0
  3  2  2  0  0  0  0
  4  5  2  0  0  0  0
  5  6  1  0  0  0  0
  5 17  1  0  0  0  0
  6  7  1  0  0  0  0
  7  1  1  6  0  0  0
  7 11  1  0  0  0  0
  8  3  1  0  0  0  0
  8 25  1  0  0  0  0
  9 24  1  0  0  0  0
  9  4  1  0  0  0  0
  9 23  1  0  0  0  0
 10  9  1  0  0  0  0
 11 16  1  0  0  0  0
 12 13  1  0  0  0  0
 12 11  2  0  0  0  0
 13 14  2  0  0  0  0
 14 20  1  0  0  0  0
 14 15  1  0  0  0  0
 15 21  1  0  0  0  0
 16 15  2  0  0  0  0
 16 22  1  0  0  0  0
 17 31  1  0  0  0  0
 17 33  1  0  0  0  0
 18 12  1  0  0  0  0
 19 13  1  0  0  0  0
 26  8  1  0  0  0  0
 27  8  1  0  0  0  0
 28 10  1  0  0  0  0
 29 10  1  0  0  0  0
 30 10  1  0  0  0  0
 32 17  1  0  0  0  0
M  END
