1,4
 OpenBabel05122313063D

 37 37  0  0  0  0  0  0  0  0999 V2000
   -1.3628   -0.1270    1.2672 O   0  5  0  0  0  0  0  0  0  0  0  0
   -7.2044    1.3493   -0.4827 O   0  0  0  0  0  0  0  0  0  0  0  0
   -7.6002    0.2012    1.3383 O   0  0  0  0  0  0  0  0  0  0  0  0
   -0.9013    1.3949   -0.9556 N   0  0  0  0  0  2  0  0  0  0  0  0
    0.7602    3.7678   -0.0806 N   0  0  0  0  0  0  0  0  0  0  0  0
   -6.8401    0.7024    0.5038 N   0  0  0  0  0  0  0  0  0  0  0  0
   -3.1179    0.8693   -0.0459 C   0  0  0  0  0  0  0  0  0  0  0  0
   -2.6215    0.1154    1.0776 C   0  0  0  0  0  0  0  0  0  0  0  0
   -3.5768   -0.3726    2.0287 C   0  0  0  0  0  0  0  0  0  0  0  0
   -3.1938   -0.9059    2.9108 H   0  0  0  0  0  0  0  0  0  0  0  0
   -4.9379   -0.1907    1.8385 C   0  0  0  0  0  0  0  0  0  0  0  0
   -5.6814   -0.5799    2.5473 H   0  0  0  0  0  0  0  0  0  0  0  0
   -5.3989    0.5147    0.7025 C   0  0  0  0  0  0  0  0  0  0  0  0
   -4.5049    1.0526   -0.2195 C   0  0  0  0  0  3  0  0  0  0  0  0
   -4.9011    1.6142   -1.0772 H   0  0  0  0  0  0  0  0  0  0  0  0
   -2.2036    1.5214   -0.9400 C   0  0  0  0  0  0  0  0  0  0  0  0
   -2.6604    2.2311   -1.6572 H   0  0  0  0  0  0  0  0  0  0  0  0
   -0.1942    2.2491   -1.9163 C   0  0  0  0  0  0  0  0  0  0  0  0
   -0.9358    2.9247   -2.3924 H   0  0  0  0  0  0  0  0  0  0  0  0
    0.2196    1.6028   -2.7159 H   0  0  0  0  0  0  0  0  0  0  0  0
    0.9802    3.0568   -1.3572 C   0  0  0  0  0  0  0  0  0  0  0  0
    1.8409    2.3845   -1.1878 H   0  0  0  0  0  0  0  0  0  0  0  0
    1.2901    3.7715   -2.1568 H   0  0  0  0  0  0  0  0  0  0  0  0
   -0.4919    4.5512   -0.0000 C   0  0  0  0  0  0  0  0  0  0  0  0
   -1.3316    3.8452   -0.1441 H   0  0  0  0  0  0  0  0  0  0  0  0
   -0.5864    4.9067    1.0450 H   0  0  0  0  0  0  0  0  0  0  0  0
   -0.6082    5.7265   -0.9707 C   0  0  0  0  0  0  0  0  0  0  0  0
    0.1780    6.4896   -0.8017 H   0  0  0  0  0  0  0  0  0  0  0  0
   -1.5874    6.2271   -0.8365 H   0  0  0  0  0  0  0  0  0  0  0  0
   -0.5452    5.4045   -2.0299 H   0  0  0  0  0  0  0  0  0  0  0  0
    1.9847    4.5352    0.2610 C   0  0  0  0  0  0  0  0  0  0  0  0
    2.8155    3.7988    0.2478 H   0  0  0  0  0  0  0  0  0  0  0  0
    2.2109    5.2740   -0.5435 H   0  0  0  0  0  0  0  0  0  0  0  0
    1.9337    5.2195    1.6212 C   0  0  0  0  0  0  0  0  0  0  0  0
    1.2172    6.0642    1.6488 H   0  0  0  0  0  0  0  0  0  0  0  0
    2.9335    5.6303    1.8615 H   0  0  0  0  0  0  0  0  0  0  0  0
    1.6639    4.5032    2.4225 H   0  0  0  0  0  0  0  0  0  0  0  0
  2  6  2  0  0  0  0
  4 16  1  0  0  0  0
  5 24  1  0  0  0  0
  5 31  1  0  0  0  0
  6 13  1  0  0  0  0
  6  3  2  0  0  0  0
  7  8  1  0  0  0  0
  8  1  1  0  0  0  0
  8  9  2  0  0  0  0
  9 10  1  0  0  0  0
 11  9  1  0  0  0  0
 11 12  1  0  0  0  0
 13 11  2  0  0  0  0
 14  7  1  0  0  0  0
 14 13  1  0  0  0  0
 15 14  1  0  0  0  0
 16  7  2  0  0  0  0
 17 16  1  0  0  0  0
 18 21  1  0  0  0  0
 18  4  1  0  0  0  0
 19 18  1  0  0  0  0
 20 18  1  0  0  0  0
 21 22  1  0  0  0  0
 21  5  1  0  0  0  0
 23 21  1  0  0  0  0
 24 26  1  0  0  0  0
 25 24  1  0  0  0  0
 27 29  1  0  0  0  0
 27 28  1  0  0  0  0
 27 24  1  0  0  0  0
 30 27  1  0  0  0  0
 31 34  1  0  0  0  0
 32 31  1  0  0  0  0
 33 31  1  0  0  0  0
 34 35  1  0  0  0  0
 34 36  1  0  0  0  0
 34 37  1  0  0  0  0
M  CHG  1   1  -1
M  END
