1,2
 OpenBabel05122313063D

 65 69  0  0  1  0  0  0  0  0999 V2000
   -2.2183   -0.2764    0.1720 N   0  0  0  0  0  2  0  0  0  0  0  0
    0.5370    0.0059   -0.1085 O   0  0  0  0  0  1  0  0  0  0  0  0
   -3.6453   -0.2858   -0.0207 C   0  0  0  0  0  0  0  0  0  0  0  0
   -4.4383    0.6779    0.6489 C   0  0  0  0  0  0  0  0  0  0  0  0
   -5.8342    0.6151    0.4786 C   0  0  0  0  0  0  0  0  0  0  0  0
   -6.4189   -0.3565   -0.3434 C   0  0  0  0  0  0  0  0  0  0  0  0
   -5.6106   -1.2715   -1.0308 C   0  0  0  0  0  0  0  0  0  0  0  0
   -4.2107   -1.2495   -0.8915 C   0  0  0  0  0  0  0  0  0  0  0  0
   -3.7896    1.7440    1.5239 C   0  0  0  0  0  0  0  0  0  0  0  0
   -3.8091    1.3389    3.0086 C   0  0  0  0  0  0  0  0  0  0  0  0
   -4.4106    3.1340    1.3240 C   0  0  0  0  0  0  0  0  0  0  0  0
   -3.3139   -2.2278   -1.6398 C   0  0  0  0  0  0  0  0  0  0  0  0
   -3.1685   -3.5516   -0.8682 C   0  0  0  0  0  0  0  0  0  0  0  0
   -3.7715   -2.4754   -3.0835 C   0  0  0  0  0  0  0  0  0  0  0  0
   -1.8153   -0.9974    1.2087 C   0  0  0  0  0  0  0  0  0  0  0  0
   -0.4869   -1.2135    1.6841 C   0  0  0  0  0  0  0  0  0  0  0  0
   -0.2924   -1.9751    2.8714 C   0  0  0  0  0  0  0  0  0  0  0  0
    0.9810   -2.2041    3.3741 C   0  0  0  0  0  0  0  0  0  0  0  0
    2.1030   -1.6776    2.6862 C   0  0  0  0  0  0  0  0  0  0  0  0
    1.9706   -0.9335    1.5120 C   0  0  0  0  0  0  0  0  0  0  0  0
    0.6520   -0.6803    0.9740 C   0  0  2  0  0  3  0  0  0  0  0  0
    3.1564   -0.4033    0.7824 C   0  0  0  0  0  0  0  0  0  0  0  0
    3.3740    1.0011    0.6917 C   0  0  0  0  0  0  0  0  0  0  0  0
    2.4845    1.9521    1.2928 C   0  0  0  0  0  0  0  0  0  0  0  0
    2.7069    3.3121    1.1899 C   0  0  0  0  0  0  0  0  0  0  0  0
    3.8474    3.8100    0.4883 C   0  0  0  0  0  0  0  0  0  0  0  0
    4.7385    2.9287   -0.0947 C   0  0  0  0  0  0  0  0  0  0  0  0
    4.5349    1.5102   -0.0176 C   0  0  0  0  0  0  0  0  0  0  0  0
    5.4399    0.6064   -0.6032 C   0  0  0  0  0  0  0  0  0  0  0  0
    5.2390   -0.7831   -0.5310 C   0  0  0  0  0  0  0  0  0  0  0  0
    6.1568   -1.7034   -1.1365 C   0  0  0  0  0  0  0  0  0  0  0  0
    5.9375   -3.0653   -1.0880 C   0  0  0  0  0  0  0  0  0  0  0  0
    4.7756   -3.5780   -0.4359 C   0  0  0  0  0  0  0  0  0  0  0  0
    3.8728   -2.7242    0.1684 C   0  0  0  0  0  0  0  0  0  0  0  0
    4.0707   -1.3023    0.1631 C   0  0  0  0  0  0  0  0  0  0  0  0
   -6.4743    1.3458    0.9955 H   0  0  0  0  0  0  0  0  0  0  0  0
   -7.5127   -0.3920   -0.4609 H   0  0  0  0  0  0  0  0  0  0  0  0
   -6.0758   -2.0164   -1.6936 H   0  0  0  0  0  0  0  0  0  0  0  0
   -2.7275    1.8055    1.2038 H   0  0  0  0  0  0  0  0  0  0  0  0
   -3.2851    0.3778    3.1789 H   0  0  0  0  0  0  0  0  0  0  0  0
   -4.8518    1.2214    3.3710 H   0  0  0  0  0  0  0  0  0  0  0  0
   -3.3139    2.1094    3.6348 H   0  0  0  0  0  0  0  0  0  0  0  0
   -5.4553    3.1809    1.6952 H   0  0  0  0  0  0  0  0  0  0  0  0
   -3.8321    3.8977    1.8827 H   0  0  0  0  0  0  0  0  0  0  0  0
   -4.4174    3.4231    0.2539 H   0  0  0  0  0  0  0  0  0  0  0  0
   -2.3095   -1.7540   -1.6845 H   0  0  0  0  0  0  0  0  0  0  0  0
   -4.1532   -4.0516   -0.7555 H   0  0  0  0  0  0  0  0  0  0  0  0
   -2.4892   -4.2471   -1.4028 H   0  0  0  0  0  0  0  0  0  0  0  0
   -2.7553   -3.3907    0.1472 H   0  0  0  0  0  0  0  0  0  0  0  0
   -4.7341   -3.0259   -3.1273 H   0  0  0  0  0  0  0  0  0  0  0  0
   -3.8991   -1.5229   -3.6359 H   0  0  0  0  0  0  0  0  0  0  0  0
   -3.0217   -3.0880   -3.6240 H   0  0  0  0  0  0  0  0  0  0  0  0
   -2.6152   -1.4955    1.7910 H   0  0  0  0  0  0  0  0  0  0  0  0
   -1.1782   -2.3758    3.3910 H   0  0  0  0  0  0  0  0  0  0  0  0
    1.1241   -2.7831    4.2976 H   0  0  0  0  0  0  0  0  0  0  0  0
    3.1150   -1.8520    3.0850 H   0  0  0  0  0  0  0  0  0  0  0  0
    1.6117    1.5782    1.8448 H   0  0  0  0  0  0  0  0  0  0  0  0
    2.0057    4.0188    1.6590 H   0  0  0  0  0  0  0  0  0  0  0  0
    4.0190    4.8956    0.4244 H   0  0  0  0  0  0  0  0  0  0  0  0
    5.6294    3.3000   -0.6259 H   0  0  0  0  0  0  0  0  0  0  0  0
    6.3260    0.9955   -1.1301 H   0  0  0  0  0  0  0  0  0  0  0  0
    7.0428   -1.2955   -1.6480 H   0  0  0  0  0  0  0  0  0  0  0  0
    6.6504   -3.7588   -1.5593 H   0  0  0  0  0  0  0  0  0  0  0  0
    4.5957   -4.6637   -0.4210 H   0  0  0  0  0  0  0  0  0  0  0  0
    2.9756   -3.1269    0.6582 H   0  0  0  0  0  0  0  0  0  0  0  0
  1 15  1  0  0  0  0
  3  1  1  0  0  0  0
  3  4  1  0  0  0  0
  4  9  1  0  0  0  0
  5  4  2  0  0  0  0
  5 36  1  0  0  0  0
  6  5  1  0  0  0  0
  7  8  1  0  0  0  0
  7  6  2  0  0  0  0
  8  3  2  0  0  0  0
  9 10  1  0  0  0  0
 10 40  1  0  0  0  0
 10 41  1  0  0  0  0
 10 42  1  0  0  0  0
 11  9  1  0  0  0  0
 11 43  1  0  0  0  0
 11 44  1  0  0  0  0
 12  8  1  0  0  0  0
 12 13  1  0  0  0  0
 13 47  1  0  0  0  0
 13 49  1  0  0  0  0
 14 12  1  0  0  0  0
 15 16  2  0  0  0  0
 15 53  1  0  0  0  0
 16 17  1  0  0  0  0
 17 18  2  0  0  0  0
 17 54  1  0  0  0  0
 18 55  1  0  0  0  0
 19 56  1  0  0  0  0
 19 18  1  0  0  0  0
 20 19  2  0  0  0  0
 21  2  1  1  0  0  0
 21 20  1  0  0  0  0
 21 16  1  0  0  0  0
 22 20  1  0  0  0  0
 23 22  1  0  0  0  0
 23 24  1  0  0  0  0
 24 57  1  0  0  0  0
 25 24  2  0  0  0  0
 25 58  1  0  0  0  0
 26 25  1  0  0  0  0
 27 28  1  0  0  0  0
 27 26  2  0  0  0  0
 28 23  2  0  0  0  0
 29 30  2  0  0  0  0
 29 28  1  0  0  0  0
 30 35  1  0  0  0  0
 31 32  2  0  0  0  0
 31 30  1  0  0  0  0
 32 33  1  0  0  0  0
 33 64  1  0  0  0  0
 33 34  2  0  0  0  0
 34 65  1  0  0  0  0
 35 34  1  0  0  0  0
 35 22  2  0  0  0  0
 37  6  1  0  0  0  0
 38  7  1  0  0  0  0
 39  9  1  0  0  0  0
 45 11  1  0  0  0  0
 46 12  1  0  0  0  0
 48 13  1  0  0  0  0
 50 14  1  0  0  0  0
 51 14  1  0  0  0  0
 52 14  1  0  0  0  0
 59 26  1  0  0  0  0
 60 27  1  0  0  0  0
 61 29  1  0  0  0  0
 62 31  1  0  0  0  0
 63 32  1  0  0  0  0
M  END
