1
 OpenBabel05122313063D

 33 34  0  0  0  0  0  0  0  0999 V2000
    1.5978   -0.6230   -1.4532 O   0  5  0  0  0  0  0  0  0  0  0  0
    0.7670    1.7566    0.3519 N   0  0  0  0  0  0  0  0  0  0  0  0
    2.7897   -0.2552   -0.9926 C   0  0  0  0  0  0  0  0  0  0  0  0
    3.8840   -1.1780   -1.0347 C   0  0  0  0  0  0  0  0  0  0  0  0
    5.1304   -0.7929   -0.5228 C   0  0  0  0  0  0  0  0  0  0  0  0
    5.9579   -1.5224   -0.5616 H   0  0  0  0  0  0  0  0  0  0  0  0
    5.3710    0.4818    0.0352 C   0  0  0  0  0  0  0  0  0  0  0  0
    4.3000    1.3890    0.0428 C   0  0  0  0  0  0  0  0  0  0  0  0
    4.4546    2.4055    0.4445 H   0  0  0  0  0  0  0  0  0  0  0  0
    3.0329    1.0505   -0.4681 C   0  0  0  0  0  0  0  0  0  0  0  0
    3.6585   -2.5414   -1.6307 C   0  0  0  0  0  0  0  0  0  0  0  0
    4.6163   -3.0614   -1.8269 H   0  0  0  0  0  0  0  0  0  0  0  0
    3.0850   -2.4688   -2.5768 H   0  0  0  0  0  0  0  0  0  0  0  0
    3.0583   -3.1907   -0.9564 H   0  0  0  0  0  0  0  0  0  0  0  0
    6.7293    0.8477    0.5816 C   0  0  0  0  0  0  0  0  0  0  0  0
    7.0295    0.1840    1.4208 H   0  0  0  0  0  0  0  0  0  0  0  0
    6.7482    1.8894    0.9585 H   0  0  0  0  0  0  0  0  0  0  0  0
    7.5218    0.7586   -0.1918 H   0  0  0  0  0  0  0  0  0  0  0  0
    1.9320    2.0723   -0.5258 C   0  0  0  0  0  0  0  0  0  0  0  0
    2.3249    3.0762   -0.2396 H   0  0  0  0  0  0  0  0  0  0  0  0
    1.5294    2.1510   -1.5595 H   0  0  0  0  0  0  0  0  0  0  0  0
   -0.2877    2.8000    0.2932 C   0  0  0  0  0  0  0  0  0  0  0  0
   -0.8087    2.7529   -0.6813 H   0  0  0  0  0  0  0  0  0  0  0  0
    0.1896    3.8019    0.4155 H   0  0  0  0  0  0  0  0  0  0  0  0
   -1.1851    2.4627    1.4840 C   0  0  0  0  0  0  0  0  0  0  0  0
   -1.9337    1.7027    1.1802 H   0  0  0  0  0  0  0  0  0  0  0  0
   -1.7482    3.3458    1.8411 H   0  0  0  0  0  0  0  0  0  0  0  0
   -0.2046    1.8958    2.5464 C   0  0  0  0  0  0  0  0  0  0  0  0
   -0.5804    0.9478    2.9771 H   0  0  0  0  0  0  0  0  0  0  0  0
   -0.0619    2.5920    3.3951 H   0  0  0  0  0  0  0  0  0  0  0  0
    1.1265    1.6960    1.7913 C   0  0  0  0  0  0  0  0  0  0  0  0
    1.8346    2.5281    2.0136 H   0  0  0  0  0  0  0  0  0  0  0  0
    1.6596    0.7528    2.0164 H   0  0  0  0  0  0  0  0  0  0  0  0
  1  3  1  0  0  0  0
  2 31  1  0  0  0  0
  3 10  1  0  0  0  0
  4  3  2  0  0  0  0
  4  5  1  0  0  0  0
  5  7  2  0  0  0  0
  6  5  1  0  0  0  0
  7  8  1  0  0  0  0
  7 15  1  0  0  0  0
  8  9  1  0  0  0  0
 10  8  2  0  0  0  0
 11  4  1  0  0  0  0
 11 14  1  0  0  0  0
 12 11  1  0  0  0  0
 13 11  1  0  0  0  0
 15 17  1  0  0  0  0
 15 16  1  0  0  0  0
 18 15  1  0  0  0  0
 19 10  1  0  0  0  0
 19 20  1  0  0  0  0
 19  2  1  0  0  0  0
 21 19  1  0  0  0  0
 22  2  1  0  0  0  0
 22 24  1  0  0  0  0
 22 25  1  0  0  0  0
 23 22  1  0  0  0  0
 25 27  1  0  0  0  0
 25 28  1  0  0  0  0
 26 25  1  0  0  0  0
 28 29  1  0  0  0  0
 28 30  1  0  0  0  0
 31 32  1  0  0  0  0
 31 33  1  0  0  0  0
 31 28  1  0  0  0  0
M  CHG  1   1  -1
M  END
