1,3
 OpenBabel05122313063D

 53 55  0  0  1  0  0  0  0  0999 V2000
    1.4551    0.0272   -0.0100 O   0  5  0  0  0  0  0  0  0  0  0  0
    4.0009    0.4206    0.1729 O   0  0  0  0  0  0  0  0  0  0  0  0
   -1.4121   -0.6313    0.0156 N   0  0  0  0  0  2  0  0  0  0  0  0
    1.6476   -1.2394    0.0329 C   0  0  0  0  0  0  0  0  0  0  0  0
    0.5508   -2.1865    0.0439 C   0  0  0  0  0  0  0  0  0  0  0  0
    0.8232   -3.5948    0.0530 C   0  0  0  0  0  0  0  0  0  0  0  0
   -0.0346   -4.2870    0.0550 H   0  0  0  0  0  0  0  0  0  0  0  0
    2.1022   -4.0880    0.0504 C   0  0  0  0  0  0  0  0  0  0  0  0
    2.2908   -5.1715    0.0481 H   0  0  0  0  0  0  0  0  0  0  0  0
    3.2268   -3.1969    0.0664 C   0  0  1  0  0  3  0  0  0  0  0  0
    3.0184   -1.7710    0.0745 C   0  0  0  0  0  0  0  0  0  0  0  0
    4.1859   -0.9272    0.1325 C   0  0  0  0  0  0  0  0  0  0  0  0
    5.4718   -1.4904    0.1577 C   0  0  0  0  0  0  0  0  0  0  0  0
    6.3575   -0.8451    0.1991 H   0  0  0  0  0  0  0  0  0  0  0  0
    5.6441   -2.8890    0.1289 C   0  0  0  0  0  0  0  0  0  0  0  0
    6.6632   -3.3051    0.1455 H   0  0  0  0  0  0  0  0  0  0  0  0
    4.5436   -3.7313    0.0872 C   0  0  0  0  0  0  0  0  0  0  0  0
    4.6699   -4.8241    0.0750 H   0  0  0  0  0  0  0  0  0  0  0  0
   -0.8273   -1.8168    0.0564 C   0  0  0  0  0  0  0  0  0  0  0  0
   -1.5245   -2.6765    0.1149 H   0  0  0  0  0  0  0  0  0  0  0  0
   -2.8451   -0.6351    0.0705 C   0  0  0  0  0  0  0  0  0  0  0  0
   -3.5836   -0.7803   -1.1311 C   0  0  0  0  0  0  0  0  0  0  0  0
   -4.9884   -0.8075   -1.0433 C   0  0  0  0  0  0  0  0  0  0  0  0
   -5.5838   -0.9295   -1.9607 H   0  0  0  0  0  0  0  0  0  0  0  0
   -5.6386   -0.6727    0.1895 C   0  0  0  0  0  0  0  0  0  0  0  0
   -6.7379   -0.6996    0.2382 H   0  0  0  0  0  0  0  0  0  0  0  0
   -4.8898   -0.4868    1.3590 C   0  0  0  0  0  0  0  0  0  0  0  0
   -5.4089   -0.3611    2.3209 H   0  0  0  0  0  0  0  0  0  0  0  0
   -3.4836   -0.4559    1.3241 C   0  0  0  0  0  0  0  0  0  0  0  0
   -2.6567   -0.2588    2.5881 C   0  0  0  0  0  0  0  0  0  0  0  0
   -1.6803    0.1611    2.2612 H   0  0  0  0  0  0  0  0  0  0  0  0
   -2.3730   -1.6055    3.2784 C   0  0  0  0  0  0  0  0  0  0  0  0
   -3.3189   -2.0918    3.5965 H   0  0  0  0  0  0  0  0  0  0  0  0
   -1.7405   -1.4620    4.1787 H   0  0  0  0  0  0  0  0  0  0  0  0
   -1.8440   -2.3072    2.6038 H   0  0  0  0  0  0  0  0  0  0  0  0
   -2.8736   -0.8992   -2.4746 C   0  0  0  0  0  0  0  0  0  0  0  0
   -1.8439   -0.5109   -2.3251 H   0  0  0  0  0  0  0  0  0  0  0  0
    5.1262    1.2561    0.3456 C   0  0  0  0  0  0  0  0  0  0  0  0
    5.6846    1.0164    1.2782 H   0  0  0  0  0  0  0  0  0  0  0  0
    4.7336    2.2879    0.4172 H   0  0  0  0  0  0  0  0  0  0  0  0
    5.8326    1.1958   -0.5139 H   0  0  0  0  0  0  0  0  0  0  0  0
   -3.5299   -0.0428   -3.5678 C   0  0  0  0  0  0  0  0  0  0  0  0
   -4.5405   -0.4135   -3.8381 H   0  0  0  0  0  0  0  0  0  0  0  0
   -2.9172   -0.0637   -4.4920 H   0  0  0  0  0  0  0  0  0  0  0  0
   -3.6302    1.0134   -3.2467 H   0  0  0  0  0  0  0  0  0  0  0  0
   -2.7595   -2.3689   -2.9179 C   0  0  0  0  0  0  0  0  0  0  0  0
   -2.2100   -2.9794   -2.1744 H   0  0  0  0  0  0  0  0  0  0  0  0
   -2.2216   -2.4491   -3.8851 H   0  0  0  0  0  0  0  0  0  0  0  0
   -3.7649   -2.8217   -3.0467 H   0  0  0  0  0  0  0  0  0  0  0  0
   -3.2828    0.7424    3.5680 C   0  0  0  0  0  0  0  0  0  0  0  0
   -3.5171    1.7045    3.0692 H   0  0  0  0  0  0  0  0  0  0  0  0
   -2.5838    0.9493    4.4037 H   0  0  0  0  0  0  0  0  0  0  0  0
   -4.2211    0.3567    4.0185 H   0  0  0  0  0  0  0  0  0  0  0  0
  1  4  1  0  0  0  0
  2 38  1  0  0  0  0
  3 19  1  0  0  0  0
  3 21  1  0  0  0  0
  4  5  1  0  0  0  0
  4 11  2  0  0  0  0
  5  6  1  0  0  0  0
  5 19  2  0  0  0  0
  6  7  1  0  0  0  0
  8  6  2  0  0  0  0
  9  8  1  0  0  0  0
 10  8  1  1  0  0  0
 10 11  1  0  0  0  0
 10 17  1  0  0  0  0
 11 12  1  0  0  0  0
 12 13  2  0  0  0  0
 12  2  1  0  0  0  0
 13 14  1  0  0  0  0
 15 16  1  0  0  0  0
 15 13  1  0  0  0  0
 17 15  2  0  0  0  0
 18 17  1  0  0  0  0
 19 20  1  0  0  0  0
 21 29  1  0  0  0  0
 22 23  1  0  0  0  0
 22 21  2  0  0  0  0
 23 25  2  0  0  0  0
 24 23  1  0  0  0  0
 25 26  1  0  0  0  0
 25 27  1  0  0  0  0
 27 28  1  0  0  0  0
 29 27  2  0  0  0  0
 29 30  1  0  0  0  0
 30 32  1  0  0  0  0
 30 50  1  0  0  0  0
 31 30  1  0  0  0  0
 32 33  1  0  0  0  0
 32 34  1  0  0  0  0
 35 32  1  0  0  0  0
 36 37  1  0  0  0  0
 36 22  1  0  0  0  0
 38 40  1  0  0  0  0
 38 39  1  0  0  0  0
 41 38  1  0  0  0  0
 42 45  1  0  0  0  0
 42 36  1  0  0  0  0
 43 42  1  0  0  0  0
 44 42  1  0  0  0  0
 46 36  1  0  0  0  0
 46 47  1  0  0  0  0
 48 46  1  0  0  0  0
 49 46  1  0  0  0  0
 50 53  1  0  0  0  0
 50 52  1  0  0  0  0
 51 50  1  0  0  0  0
M  CHG  1   1  -1
M  END
