1,34
 OpenBabel05122313063D

 34 34  0  0  1  0  0  0  0  0999 V2000
   -0.0580   -1.8394   -0.5307 O   0  0  0  0  0  1  0  0  0  0  0  0
    0.9352   -2.6518   -0.6450 C   0  0  2  0  0  3  0  0  0  0  0  0
    0.4971   -4.0868   -0.9531 C   0  0  0  0  0  0  0  0  0  0  0  0
   -0.2235   -4.5942    0.0777 F   0  0  0  0  0  0  0  0  0  0  0  0
    1.5464   -4.9098   -1.1634 F   0  0  0  0  0  0  0  0  0  0  0  0
   -0.2888   -4.1288   -2.0525 F   0  0  0  0  0  0  0  0  0  0  0  0
    2.2732   -2.3616   -0.4636 C   0  0  0  0  0  0  0  0  0  0  0  0
    3.0174   -3.1595   -0.5563 H   0  0  0  0  0  0  0  0  0  0  0  0
    2.6905   -1.0609   -0.0800 C   0  0  0  0  0  0  0  0  0  0  0  0
    4.1465   -0.7780    0.2665 C   0  0  0  0  0  0  0  0  0  0  0  0
    5.0101   -0.7084   -1.0133 C   0  0  0  0  0  0  0  0  0  0  0  0
    6.0039   -0.2947   -0.7566 H   0  0  0  0  0  0  0  0  0  0  0  0
    4.5592   -0.0662   -1.7912 H   0  0  0  0  0  0  0  0  0  0  0  0
    5.1423   -1.7224   -1.4382 H   0  0  0  0  0  0  0  0  0  0  0  0
    4.7446   -1.8096    1.2375 C   0  0  0  0  0  0  0  0  0  0  0  0
    4.1248   -1.8864    2.1507 H   0  0  0  0  0  0  0  0  0  0  0  0
    5.7635   -1.4854    1.5295 H   0  0  0  0  0  0  0  0  0  0  0  0
    4.8349   -2.8112    0.7727 H   0  0  0  0  0  0  0  0  0  0  0  0
    3.9569    0.5015    0.9783 N   0  0  0  0  0  0  0  0  0  0  0  0
    5.1020    1.3301    0.9024 O   0  0  0  0  0  0  0  0  0  0  0  0
    5.6232    1.5671    2.2040 C   0  0  0  0  0  0  0  0  0  0  0  0
    5.9447    0.6270    2.7032 H   0  0  0  0  0  0  0  0  0  0  0  0
    4.8902    2.0835    2.8609 H   0  0  0  0  0  0  0  0  0  0  0  0
    6.5050    2.2218    2.0544 H   0  0  0  0  0  0  0  0  0  0  0  0
    2.7338    1.1864    0.4470 C   0  0  0  0  0  0  0  0  0  0  0  0
    2.0964    1.9419    1.6171 C   0  0  0  0  0  0  0  0  0  0  0  0
    1.8357    1.2319    2.4248 H   0  0  0  0  0  0  0  0  0  0  0  0
    1.2053    2.5085    1.3030 H   0  0  0  0  0  0  0  0  0  0  0  0
    2.8389    2.6627    2.0124 H   0  0  0  0  0  0  0  0  0  0  0  0
    3.0276    2.1184   -0.7397 C   0  0  0  0  0  0  0  0  0  0  0  0
    3.7863    2.8622   -0.4336 H   0  0  0  0  0  0  0  0  0  0  0  0
    2.1066    2.6305   -1.0580 H   0  0  0  0  0  0  0  0  0  0  0  0
    3.4248    1.5553   -1.6037 H   0  0  0  0  0  0  0  0  0  0  0  0
    1.9167    0.0092    0.0252 N   0  0  0  0  0  2  0  0  0  0  0  0
  2  1  1  1  0  0  0
  2  7  1  0  0  0  0
  3  2  1  0  0  0  0
  3  4  1  0  0  0  0
  5  3  1  0  0  0  0
  6  3  1  0  0  0  0
  7  9  2  0  0  0  0
  8  7  1  0  0  0  0
  9 34  1  0  0  0  0
  9 10  1  0  0  0  0
 10 19  1  0  0  0  0
 10 15  1  0  0  0  0
 11 12  1  0  0  0  0
 11 10  1  0  0  0  0
 13 11  1  0  0  0  0
 14 11  1  0  0  0  0
 15 17  1  0  0  0  0
 15 16  1  0  0  0  0
 18 15  1  0  0  0  0
 20 19  1  0  0  0  0
 20 21  1  0  0  0  0
 21 22  1  0  0  0  0
 21 23  1  0  0  0  0
 24 21  1  0  0  0  0
 25 19  1  0  0  0  0
 25 26  1  0  0  0  0
 26 29  1  0  0  0  0
 26 27  1  0  0  0  0
 28 26  1  0  0  0  0
 30 31  1  0  0  0  0
 30 25  1  0  0  0  0
 32 30  1  0  0  0  0
 33 30  1  0  0  0  0
 34 25  1  0  0  0  0
M  END
