1,2
 OpenBabel05122313063D

 33 33  0  0  0  0  0  0  0  0999 V2000
   -1.8236   -1.4233    0.1366 O   0  5  0  0  0  0  0  0  0  0  0  0
   -0.5832    1.2793    0.1151 N   0  0  0  0  0  2  0  0  0  0  0  0
    2.6605    1.2929    0.2939 N   0  3  0  0  0  0  0  0  0  0  0  0
    3.0149    1.8769    1.0704 H   0  0  0  0  0  0  0  0  0  0  0  0
    2.1543    0.4719    0.8212 H   0  0  0  0  0  0  0  0  0  0  0  0
   -2.9874    0.7205   -0.0208 C   0  0  0  0  0  0  0  0  0  0  0  0
   -2.9159   -0.7346    0.0532 C   0  0  0  0  0  0  0  0  0  0  0  0
   -4.1667   -1.4389    0.0336 C   0  0  0  0  0  0  0  0  0  0  0  0
   -4.1080   -2.5353    0.0961 H   0  0  0  0  0  0  0  0  0  0  0  0
   -5.3833   -0.7814   -0.0685 C   0  0  0  0  0  0  0  0  0  0  0  0
   -6.3149   -1.3695   -0.0856 H   0  0  0  0  0  0  0  0  0  0  0  0
   -5.4476    0.6341   -0.1522 C   0  0  0  0  0  0  0  0  0  0  0  0
   -6.4165    1.1470   -0.2329 H   0  0  0  0  0  0  0  0  0  0  0  0
   -4.2642    1.3541   -0.1250 C   0  0  0  0  0  0  0  0  0  0  0  0
   -4.2890    2.4553   -0.1807 H   0  0  0  0  0  0  0  0  0  0  0  0
   -1.8518    1.5954    0.0309 C   0  0  0  0  0  3  0  0  0  0  0  0
   -2.1070    2.6811    0.0037 H   0  0  0  0  0  0  0  0  0  0  0  0
    0.3819    2.3580    0.2368 C   0  0  0  0  0  0  0  0  0  0  0  0
    0.6158    2.5265    1.3159 H   0  0  0  0  0  0  0  0  0  0  0  0
   -0.0462    3.3158   -0.1388 H   0  0  0  0  0  0  0  0  0  0  0  0
    1.6829    2.0783   -0.5237 C   0  0  0  0  0  0  0  0  0  0  0  0
    1.4679    1.4628   -1.4226 H   0  0  0  0  0  0  0  0  0  0  0  0
    2.1817    3.0205   -0.8261 H   0  0  0  0  0  0  0  0  0  0  0  0
    3.8074    0.7101   -0.4686 C   0  0  0  0  0  0  0  0  0  0  0  0
    4.3564    1.5426   -0.9578 H   0  0  0  0  0  0  0  0  0  0  0  0
    3.3365    0.0721   -1.2467 H   0  0  0  0  0  0  0  0  0  0  0  0
    4.7014   -0.1209    0.4443 C   0  0  0  0  0  0  0  0  0  0  0  0
    4.0658   -0.8840    0.9422 H   0  0  0  0  0  0  0  0  0  0  0  0
    5.1232    0.5197    1.2522 H   0  0  0  0  0  0  0  0  0  0  0  0
    5.8302   -0.7946   -0.3354 C   0  0  0  0  0  0  0  0  0  0  0  0
    5.4239   -1.4716   -1.1140 H   0  0  0  0  0  0  0  0  0  0  0  0
    6.4681   -1.4005    0.3367 H   0  0  0  0  0  0  0  0  0  0  0  0
    6.4829   -0.0520   -0.8398 H   0  0  0  0  0  0  0  0  0  0  0  0
  2 18  1  0  0  0  0
  3  5  1  0  0  0  0
  3  4  1  0  0  0  0
  6 16  1  0  0  0  0
  6  7  1  0  0  0  0
  7  1  1  0  0  0  0
  8  7  2  0  0  0  0
  8  9  1  0  0  0  0
 10  8  1  0  0  0  0
 11 10  1  0  0  0  0
 12 14  1  0  0  0  0
 12 10  2  0  0  0  0
 13 12  1  0  0  0  0
 14  6  2  0  0  0  0
 15 14  1  0  0  0  0
 16  2  1  0  0  0  0
 17 16  1  0  0  0  0
 18 19  1  0  0  0  0
 20 18  1  0  0  0  0
 21 18  1  0  0  0  0
 21  3  1  0  0  0  0
 22 21  1  0  0  0  0
 23 21  1  0  0  0  0
 24  3  1  0  0  0  0
 24 27  1  0  0  0  0
 25 24  1  0  0  0  0
 26 24  1  0  0  0  0
 27 28  1  0  0  0  0
 27 29  1  0  0  0  0
 30 32  1  0  0  0  0
 30 27  1  0  0  0  0
 31 30  1  0  0  0  0
 33 30  1  0  0  0  0
M  CHG  2   1  -1   3   1
M  END
