1,3
 OpenBabel05122313063D

 32 32  0  0  1  0  0  0  0  0999 V2000
   -2.2728   -0.3047    1.2888 O   0  0  0  0  0  1  0  0  0  0  0  0
    1.2567    2.6917   -0.4719 O   0  0  0  0  0  0  0  0  0  0  0  0
    0.5188    0.4925    1.0098 N   0  0  0  0  0  2  0  0  0  0  0  0
   -2.1940    0.4836    2.3043 C   0  0  1  0  0  3  0  0  0  0  0  0
   -1.0563    1.1804    2.7271 C   0  0  0  0  0  0  0  0  0  0  0  0
   -1.1627    1.8052    3.6229 H   0  0  0  0  0  0  0  0  0  0  0  0
    0.2175    1.1932    2.0996 C   0  0  0  0  0  0  0  0  0  0  0  0
    1.8206    0.5816    0.4449 C   0  0  0  0  0  0  0  0  0  0  0  0
    2.1889    1.6955   -0.3578 C   0  0  0  0  0  0  0  0  0  0  0  0
    1.5711    3.8153   -1.2712 C   0  0  0  0  0  0  0  0  0  0  0  0
    2.4626    4.3610   -0.8884 H   0  0  0  0  0  0  0  0  0  0  0  0
    0.6914    4.4842   -1.2279 H   0  0  0  0  0  0  0  0  0  0  0  0
    1.7579    3.5308   -2.3317 H   0  0  0  0  0  0  0  0  0  0  0  0
    3.4467    1.7034   -0.9856 C   0  0  0  0  0  0  0  0  0  0  0  0
    3.7503    2.5491   -1.6174 H   0  0  0  0  0  0  0  0  0  0  0  0
    4.3292    0.6224   -0.8131 C   0  0  0  0  0  0  0  0  0  0  0  0
    5.3080    0.6479   -1.3172 H   0  0  0  0  0  0  0  0  0  0  0  0
    3.9883   -0.4829   -0.0127 C   0  0  0  0  0  0  0  0  0  0  0  0
    4.9312   -1.6441    0.1835 C   0  0  0  0  0  0  0  0  0  0  0  0
    5.8429   -1.5402   -0.4365 H   0  0  0  0  0  0  0  0  0  0  0  0
    4.4463   -2.6077   -0.0784 H   0  0  0  0  0  0  0  0  0  0  0  0
    5.2506   -1.7301    1.2433 H   0  0  0  0  0  0  0  0  0  0  0  0
    2.7229   -0.4801    0.6085 C   0  0  0  0  0  0  0  0  0  0  0  0
    2.3751   -1.3322    1.2148 H   0  0  0  0  0  0  0  0  0  0  0  0
    1.2803    2.0779    2.7131 C   0  0  0  0  0  0  0  0  0  0  0  0
    1.4793    2.9474    2.0539 H   0  0  0  0  0  0  0  0  0  0  0  0
    2.2356    1.5287    2.8271 H   0  0  0  0  0  0  0  0  0  0  0  0
    0.9596    2.4523    3.7016 H   0  0  0  0  0  0  0  0  0  0  0  0
   -3.4948    0.6348    3.0612 C   0  0  0  0  0  0  0  0  0  0  0  0
   -4.2908    0.9865    2.3730 H   0  0  0  0  0  0  0  0  0  0  0  0
   -3.4116    1.3377    3.9101 H   0  0  0  0  0  0  0  0  0  0  0  0
   -3.8137   -0.3576    3.4407 H   0  0  0  0  0  0  0  0  0  0  0  0
  2  9  1  0  0  0  0
  3  7  1  0  0  0  0
  4  1  1  6  0  0  0
  4  5  1  0  0  0  0
  4 29  1  0  0  0  0
  5  6  1  0  0  0  0
  7 25  1  0  0  0  0
  7  5  2  0  0  0  0
  8 23  1  0  0  0  0
  8  3  1  0  0  0  0
  9  8  2  0  0  0  0
 10 12  1  0  0  0  0
 10 11  1  0  0  0  0
 10  2  1  0  0  0  0
 13 10  1  0  0  0  0
 14 16  2  0  0  0  0
 14  9  1  0  0  0  0
 15 14  1  0  0  0  0
 16 18  1  0  0  0  0
 17 16  1  0  0  0  0
 18 19  1  0  0  0  0
 18 23  2  0  0  0  0
 19 22  1  0  0  0  0
 20 19  1  0  0  0  0
 21 19  1  0  0  0  0
 23 24  1  0  0  0  0
 25 27  1  0  0  0  0
 25 28  1  0  0  0  0
 26 25  1  0  0  0  0
 29 32  1  0  0  0  0
 29 31  1  0  0  0  0
 30 29  1  0  0  0  0
M  END
