1,3
 OpenBabel05122313063D

 29 29  0  0  1  0  0  0  0  0999 V2000
    2.1572   -0.1544   -1.2604 O   0  0  0  0  0  1  0  0  0  0  0  0
   -1.9741   -2.2249    0.5347 O   0  0  0  0  0  0  0  0  0  0  0  0
   -0.7460   -0.3133   -1.0118 N   0  0  0  0  0  2  0  0  0  0  0  0
    1.9214   -0.9493   -2.2457 C   0  0  2  0  0  3  0  0  0  0  0  0
    0.6645   -1.4005   -2.6651 C   0  0  0  0  0  0  0  0  0  0  0  0
    0.6439   -2.0711   -3.5334 H   0  0  0  0  0  0  0  0  0  0  0  0
   -0.5897   -1.1085   -2.0672 C   0  0  0  0  0  0  0  0  0  0  0  0
   -2.0443   -0.0886   -0.4791 C   0  0  0  0  0  0  0  0  0  0  0  0
   -2.6934    1.1360   -0.7126 C   0  0  0  0  0  0  0  0  0  0  0  0
   -2.1612    1.8684   -1.3396 H   0  0  0  0  0  0  0  0  0  0  0  0
   -3.9394    1.4110   -0.1290 C   0  0  0  0  0  0  0  0  0  0  0  0
   -4.4348    2.3743   -0.3215 H   0  0  0  0  0  0  0  0  0  0  0  0
   -4.5440    0.4555    0.7007 C   0  0  0  0  0  0  0  0  0  0  0  0
   -5.5192    0.6606    1.1676 H   0  0  0  0  0  0  0  0  0  0  0  0
   -3.9135   -0.7770    0.9434 C   0  0  0  0  0  0  0  0  0  0  0  0
   -4.4013   -1.5153    1.5940 H   0  0  0  0  0  0  0  0  0  0  0  0
   -2.6658   -1.0585    0.3544 C   0  0  0  0  0  0  0  0  0  0  0  0
   -2.5392   -3.2232    1.3629 C   0  0  0  0  0  0  0  0  0  0  0  0
   -3.5169   -3.5830    0.9713 H   0  0  0  0  0  0  0  0  0  0  0  0
   -2.6851   -2.8627    2.4063 H   0  0  0  0  0  0  0  0  0  0  0  0
   -1.8208   -4.0639    1.3699 H   0  0  0  0  0  0  0  0  0  0  0  0
   -1.8114   -1.7644   -2.6722 C   0  0  0  0  0  0  0  0  0  0  0  0
   -2.6198   -1.0245   -2.8340 H   0  0  0  0  0  0  0  0  0  0  0  0
   -2.2087   -2.5387   -1.9845 H   0  0  0  0  0  0  0  0  0  0  0  0
   -1.5647   -2.2443   -3.6360 H   0  0  0  0  0  0  0  0  0  0  0  0
    3.1673   -1.4105   -2.9689 C   0  0  0  0  0  0  0  0  0  0  0  0
    3.8607   -1.8944   -2.2506 H   0  0  0  0  0  0  0  0  0  0  0  0
    3.6971   -0.5278   -3.3819 H   0  0  0  0  0  0  0  0  0  0  0  0
    2.9437   -2.1159   -3.7899 H   0  0  0  0  0  0  0  0  0  0  0  0
  2 18  1  0  0  0  0
  3  8  1  0  0  0  0
  4  1  1  1  0  0  0
  5  4  1  0  0  0  0
  5  7  2  0  0  0  0
  6  5  1  0  0  0  0
  7  3  1  0  0  0  0
  8 17  1  0  0  0  0
  9  8  2  0  0  0  0
  9 11  1  0  0  0  0
 10  9  1  0  0  0  0
 11 13  2  0  0  0  0
 12 11  1  0  0  0  0
 13 15  1  0  0  0  0
 13 14  1  0  0  0  0
 15 16  1  0  0  0  0
 17  2  1  0  0  0  0
 17 15  2  0  0  0  0
 18 21  1  0  0  0  0
 18 20  1  0  0  0  0
 19 18  1  0  0  0  0
 22  7  1  0  0  0  0
 22 24  1  0  0  0  0
 23 22  1  0  0  0  0
 25 22  1  0  0  0  0
 26 27  1  0  0  0  0
 26  4  1  0  0  0  0
 28 26  1  0  0  0  0
 29 26  1  0  0  0  0
M  END
