21,22
 OpenBabel05122313063D

 23 24  0  0  1  0  0  0  0  0999 V2000
   -2.5607   -1.4582   -0.2235 C   0  0  2  0  0  3  0  0  0  0  0  0
   -3.2472   -2.7117   -0.3084 C   0  0  0  0  0  0  0  0  0  0  0  0
   -2.6317   -3.5950   -0.5331 H   0  0  0  0  0  0  0  0  0  0  0  0
   -4.6161   -2.8151   -0.1032 C   0  0  0  0  0  0  0  0  0  0  0  0
   -5.1008   -3.8024   -0.1658 H   0  0  0  0  0  0  0  0  0  0  0  0
   -5.3839   -1.6659    0.1929 C   0  0  0  0  0  0  0  0  0  0  0  0
   -6.4666   -1.7433    0.3672 H   0  0  0  0  0  0  0  0  0  0  0  0
   -4.7503   -0.4304    0.2565 C   0  0  0  0  0  0  0  0  0  0  0  0
   -5.3348    0.4731    0.4720 H   0  0  0  0  0  0  0  0  0  0  0  0
   -3.3496   -0.2838    0.0440 C   0  0  0  0  0  0  0  0  0  0  0  0
   -2.7871    1.0673    0.0407 C   0  0  0  0  0  0  0  0  0  0  0  0
   -3.4017    3.3893    0.2666 C   0  0  0  0  0  0  0  0  0  0  0  0
   -4.3094    3.9590   -0.0108 H   0  0  0  0  0  0  0  0  0  0  0  0
   -3.1773    3.5888    1.3391 H   0  0  0  0  0  0  0  0  0  0  0  0
   -2.2043    3.6998   -0.6055 C   0  0  0  0  0  0  0  0  0  0  0  0
   -2.4737    3.5383   -1.6706 H   0  0  0  0  0  0  0  0  0  0  0  0
   -1.8940    4.7580   -0.4946 H   0  0  0  0  0  0  0  0  0  0  0  0
   -1.0755    2.7702   -0.1827 C   0  0  0  0  0  0  0  0  0  0  0  0
   -0.6339    3.0939    0.7829 H   0  0  0  0  0  0  0  0  0  0  0  0
   -0.2366    2.7940   -0.9026 H   0  0  0  0  0  0  0  0  0  0  0  0
   -1.5102    1.3722   -0.0484 N   0  0  0  0  0  2  0  0  0  0  0  0
   -1.2661   -1.4910   -0.4022 O   0  0  0  0  0  1  0  0  0  0  0  0
   -3.7607    2.0113    0.1156 O   0  0  0  0  0  0  0  0  0  0  0  0
  1 22  1  6  0  0  0
  1 10  1  0  0  0  0
  2  1  1  0  0  0  0
  2  4  2  0  0  0  0
  3  2  1  0  0  0  0
  4  6  1  0  0  0  0
  5  4  1  0  0  0  0
  6  8  2  0  0  0  0
  6  7  1  0  0  0  0
  8  9  1  0  0  0  0
 10  8  1  0  0  0  0
 11 10  2  0  0  0  0
 11 23  1  0  0  0  0
 12 14  1  0  0  0  0
 13 12  1  0  0  0  0
 15 17  1  0  0  0  0
 15 18  1  0  0  0  0
 15 12  1  0  0  0  0
 16 15  1  0  0  0  0
 18 21  1  0  0  0  0
 18 19  1  0  0  0  0
 20 18  1  0  0  0  0
 21 11  1  0  0  0  0
 23 12  1  0  0  0  0
M  END
