1,4
 OpenBabel05122313063D

 19 18  0  0  1  0  0  0  0  0999 V2000
    1.6677   -0.3844    0.3294 N   0  0  0  0  0  0  0  0  0  0  0  0
    1.8682   -1.0015    1.1261 H   0  0  0  0  0  0  0  0  0  0  0  0
    1.9521   -0.8905   -0.5230 H   0  0  0  0  0  0  0  0  0  0  0  0
    0.3175    1.8523   -0.3777 O   0  5  0  0  0  0  0  0  0  0  0  0
    2.2084    3.0415   -0.6544 O   0  0  0  0  0  0  0  0  0  0  0  0
    6.4739   -0.2162    0.2680 S   0  0  0  0  0  0  0  0  0  0  0  0
    1.6071    2.0368   -0.2804 C   0  0  0  0  0  0  0  0  0  0  0  0
    2.4036    0.8920    0.4262 C   0  0  2  0  0  0  0  0  0  0  0  0
    2.3991    1.1767    1.5006 H   0  0  0  0  0  0  0  0  0  0  0  0
    3.8541    0.8214   -0.0580 C   0  0  0  0  0  0  0  0  0  0  0  0
    4.2591    1.8515   -0.0641 H   0  0  0  0  0  0  0  0  0  0  0  0
    3.8539    0.4853   -1.1178 H   0  0  0  0  0  0  0  0  0  0  0  0
    4.7268   -0.0965    0.7945 C   0  0  0  0  0  0  0  0  0  0  0  0
    4.3090   -1.1276    0.8411 H   0  0  0  0  0  0  0  0  0  0  0  0
    4.7719    0.2725    1.8417 H   0  0  0  0  0  0  0  0  0  0  0  0
    6.2717   -1.1144   -1.3012 C   0  0  0  0  0  0  0  0  0  0  0  0
    7.2899   -1.3068   -1.6911 H   0  0  0  0  0  0  0  0  0  0  0  0
    5.7100   -0.5250   -2.0531 H   0  0  0  0  0  0  0  0  0  0  0  0
    5.7611   -2.0881   -1.1475 H   0  0  0  0  0  0  0  0  0  0  0  0
  1  8  1  0  0  0  0
  1  2  1  0  0  0  0
  3  1  1  0  0  0  0
  4  7  1  0  0  0  0
  5  7  2  0  0  0  0
  6 13  1  0  0  0  0
  7  8  1  0  0  0  0
  8  9  1  1  0  0  0
 10  8  1  0  0  0  0
 10 13  1  0  0  0  0
 11 10  1  0  0  0  0
 12 10  1  0  0  0  0
 13 14  1  0  0  0  0
 13 15  1  0  0  0  0
 16 19  1  0  0  0  0
 16  6  1  0  0  0  0
 17 16  1  0  0  0  0
 18 16  1  0  0  0  0
M  CHG  1   4  -1
M  END
