1,8
 OpenBabel05122313063D

 14 14  0  0  1  0  0  0  0  0999 V2000
    0.0119    0.8582   -0.0099 N   0  0  0  0  0  2  0  0  0  0  0  0
    1.0461   -0.0104   -0.0283 C   0  0  2  0  0  3  0  0  0  0  0  0
    2.3842    0.4809   -0.0409 C   0  0  0  0  0  0  0  0  0  0  0  0
    2.6221    1.8156   -0.0717 N   0  0  0  0  0  0  0  0  0  0  0  0
    1.5819    2.6413   -0.0451 C   0  0  0  0  0  0  0  0  0  0  0  0
    0.2496    2.1871   -0.0061 C   0  0  0  0  0  0  0  0  0  0  0  0
    0.6731   -1.4786   -0.0513 C   0  0  0  0  0  0  0  0  0  0  0  0
   -0.6445   -1.7029   -0.0334 O   0  5  0  0  0  0  0  0  0  0  0  0
    1.4850   -2.3829   -0.0904 O   0  0  0  0  0  0  0  0  0  0  0  0
    3.6159   -0.4456    0.0495 C   0  0  0  0  0  0  0  0  0  0  0  0
    4.1564   -0.7189   -1.0327 O   0  5  0  0  0  0  0  0  0  0  0  0
    3.8651   -0.6770    1.2527 O   0  0  0  0  0  0  0  0  0  0  0  0
    1.7833    3.7284   -0.0609 H   0  0  0  0  0  0  0  0  0  0  0  0
   -0.6018    2.8815    0.0161 H   0  0  0  0  0  0  0  0  0  0  0  0
  1  6  1  0  0  0  0
  2  7  1  6  0  0  0
  2  1  1  0  0  0  0
  3  2  1  0  0  0  0
  3 10  1  0  0  0  0
  4  5  1  0  0  0  0
  4  3  2  0  0  0  0
  5  6  2  0  0  0  0
  6 14  1  0  0  0  0
  7  8  1  0  0  0  0
  9  7  2  0  0  0  0
 10 12  2  0  0  0  0
 11 10  1  0  0  0  0
 13  5  1  0  0  0  0
M  CHG  2   8  -1  11  -1
M  END
