1,2
 OpenBabel05122313063D

 30 31  0  0  1  0  0  0  0  0999 V2000
   -0.3490   -1.9117    0.5326 O   0  0  0  0  0  1  0  0  0  0  0  0
   -0.3280    0.8320    0.2701 N   0  0  0  0  0  2  0  0  0  0  0  0
   -4.9315   -2.0104    0.1450 O   0  0  0  0  0  0  0  0  0  0  0  0
   -2.6335   -1.9788    0.3308 N   0  0  0  0  0  0  0  0  0  0  0  0
   -2.8074    2.1208   -0.0730 N   0  0  0  0  0  0  0  0  0  0  0  0
   -3.8910    0.0426    0.0488 N   0  0  0  0  0  0  0  0  0  0  0  0
   -0.3985    2.1730    0.1564 C   0  0  1  0  0  3  0  0  0  0  0  0
   -1.4325   -1.3076    0.3539 C   0  0  1  0  0  3  0  0  0  0  0  0
   -2.7285    0.7896    0.0689 C   0  0  0  0  0  0  0  0  0  0  0  0
   -3.9012   -1.3595    0.1711 C   0  0  0  0  0  0  0  0  0  0  0  0
    0.8796    2.9981    0.1788 C   0  0  0  0  0  0  0  0  0  0  0  0
   -1.6618    2.8187   -0.0492 C   0  0  0  0  0  0  0  0  0  0  0  0
    1.1146    3.7281   -0.7708 O   0  0  0  0  0  0  0  0  0  0  0  0
   -1.4914    0.1362    0.2166 C   0  0  0  0  0  0  0  0  0  0  0  0
   -1.7597    4.3009   -0.2565 C   0  0  0  0  0  0  0  0  0  0  0  0
   -2.8229    4.5952   -0.2965 H   0  0  0  0  0  0  0  0  0  0  0  0
   -1.2501    4.5838   -1.1988 H   0  0  0  0  0  0  0  0  0  0  0  0
   -1.2470    4.8622    0.5507 H   0  0  0  0  0  0  0  0  0  0  0  0
   -2.5864   -3.4398    0.4357 C   0  0  0  0  0  0  0  0  0  0  0  0
   -1.9505   -3.8423   -0.3759 H   0  0  0  0  0  0  0  0  0  0  0  0
   -3.6187   -3.8159    0.3523 H   0  0  0  0  0  0  0  0  0  0  0  0
   -2.1405   -3.7316    1.4056 H   0  0  0  0  0  0  0  0  0  0  0  0
   -5.1730    0.7289   -0.1300 C   0  0  0  0  0  0  0  0  0  0  0  0
   -5.9626   -0.0401   -0.1154 H   0  0  0  0  0  0  0  0  0  0  0  0
   -5.1774    1.2746   -1.0923 H   0  0  0  0  0  0  0  0  0  0  0  0
   -5.3255    1.4620    0.6843 H   0  0  0  0  0  0  0  0  0  0  0  0
    1.7230    2.9615    1.4283 C   0  0  0  0  0  0  0  0  0  0  0  0
    2.7608    3.2537    1.1849 H   0  0  0  0  0  0  0  0  0  0  0  0
    1.7000    1.9845    1.9427 H   0  0  0  0  0  0  0  0  0  0  0  0
    1.3018    3.7175    2.1278 H   0  0  0  0  0  0  0  0  0  0  0  0
  3 10  2  0  0  0  0
  4  8  1  0  0  0  0
  4 19  1  0  0  0  0
  5 12  2  0  0  0  0
  5  9  1  0  0  0  0
  6  9  1  0  0  0  0
  6 10  1  0  0  0  0
  7 11  1  6  0  0  0
  7  2  1  0  0  0  0
  8  1  1  1  0  0  0
  9 14  2  0  0  0  0
 10  4  1  0  0  0  0
 11 27  1  0  0  0  0
 12  7  1  0  0  0  0
 13 11  2  0  0  0  0
 14  2  1  0  0  0  0
 14  8  1  0  0  0  0
 15 12  1  0  0  0  0
 15 18  1  0  0  0  0
 16 15  1  0  0  0  0
 17 15  1  0  0  0  0
 19 22  1  0  0  0  0
 20 19  1  0  0  0  0
 21 19  1  0  0  0  0
 23 24  1  0  0  0  0
 23  6  1  0  0  0  0
 23 26  1  0  0  0  0
 25 23  1  0  0  0  0
 27 29  1  0  0  0  0
 27 30  1  0  0  0  0
 28 27  1  0  0  0  0
M  END
