1,4
 OpenBabel05122313063D

 29 29  0  0  1  0  0  0  0  0999 V2000
   -0.8401    2.3648   -0.9869 O   0  5  0  0  0  0  0  0  0  0  0  0
   -2.7962    3.4499   -1.0251 O   0  0  0  0  0  0  0  0  0  0  0  0
   -3.4986   -1.4095   -0.7787 O   0  0  0  0  0  0  0  0  0  0  0  0
   -1.8319    0.0714   -0.2136 N   0  0  0  0  0  2  0  0  0  0  0  0
   -2.1582    2.4381   -0.7815 C   0  0  0  0  0  0  0  0  0  0  0  0
   -0.1104   -1.9602   -1.7460 C   0  0  0  0  0  0  0  0  0  0  0  0
    0.8066   -2.9929   -1.9984 C   0  0  0  0  0  0  0  0  0  0  0  0
    0.5744   -4.2816   -1.4917 C   0  0  0  0  0  0  0  0  0  0  0  0
   -0.6024   -4.5442   -0.7678 C   0  0  0  0  0  0  0  0  0  0  0  0
   -1.5265   -3.5172   -0.5344 C   0  0  0  0  0  0  0  0  0  0  0  0
   -1.2696   -2.2046   -0.9828 C   0  0  0  0  0  0  0  0  0  0  0  0
   -2.2912   -1.1394   -0.6599 C   0  0  0  0  0  0  0  0  0  0  0  0
   -2.7976    1.1743   -0.1752 C   0  0  2  0  0  0  0  0  0  0  0  0
   -3.3491    1.4991    1.2421 C   0  0  0  0  0  0  0  0  0  0  0  0
   -2.2649    2.0003    2.2027 C   0  0  0  0  0  0  0  0  0  0  0  0
   -4.1100    0.3098    1.8344 C   0  0  0  0  0  0  0  0  0  0  0  0
    0.0688   -0.9498   -2.1458 H   0  0  0  0  0  0  0  0  0  0  0  0
    1.7055   -2.7908   -2.6013 H   0  0  0  0  0  0  0  0  0  0  0  0
    1.2987   -5.0889   -1.6812 H   0  0  0  0  0  0  0  0  0  0  0  0
   -0.8026   -5.5596   -0.3918 H   0  0  0  0  0  0  0  0  0  0  0  0
   -2.4653   -3.7057    0.0081 H   0  0  0  0  0  0  0  0  0  0  0  0
   -3.6685    0.8950   -0.8050 H   0  0  0  0  0  0  0  0  0  0  0  0
   -4.0632    2.3339    1.0658 H   0  0  0  0  0  0  0  0  0  0  0  0
   -1.7567    2.9078    1.8181 H   0  0  0  0  0  0  0  0  0  0  0  0
   -1.4900    1.2212    2.3694 H   0  0  0  0  0  0  0  0  0  0  0  0
   -2.7024    2.2527    3.1902 H   0  0  0  0  0  0  0  0  0  0  0  0
   -4.5939    0.5912    2.7925 H   0  0  0  0  0  0  0  0  0  0  0  0
   -3.4176   -0.5334    2.0411 H   0  0  0  0  0  0  0  0  0  0  0  0
   -4.8803   -0.0719    1.1382 H   0  0  0  0  0  0  0  0  0  0  0  0
  1  5  1  0  0  0  0
  2  5  2  0  0  0  0
  3 12  2  0  0  0  0
  4 13  1  0  0  0  0
  5 13  1  0  0  0  0
  6 11  1  0  0  0  0
  7  6  2  0  0  0  0
  7  8  1  0  0  0  0
  8  9  2  0  0  0  0
  9 10  1  0  0  0  0
  9 20  1  0  0  0  0
 10 21  1  0  0  0  0
 11 12  1  0  0  0  0
 11 10  2  0  0  0  0
 12  4  1  0  0  0  0
 13 22  1  6  0  0  0
 13 14  1  0  0  0  0
 14 16  1  0  0  0  0
 14 15  1  0  0  0  0
 15 25  1  0  0  0  0
 15 26  1  0  0  0  0
 16 28  1  0  0  0  0
 16 27  1  0  0  0  0
 17  6  1  0  0  0  0
 18  7  1  0  0  0  0
 19  8  1  0  0  0  0
 23 14  1  0  0  0  0
 24 15  1  0  0  0  0
 29 16  1  0  0  0  0
M  CHG  1   1  -1
M  END
