1,2
 OpenBabel05122313063D

 38 39  0  0  1  0  0  0  0  0999 V2000
    0.8870   -2.0163   -0.5258 O   0  0  0  0  0  1  0  0  0  0  0  0
   -0.1280    0.1898   -0.1191 N   0  0  0  0  0  2  0  0  0  0  0  0
   -1.1001   -0.7210   -0.7324 C   0  0  1  0  0  0  0  0  0  0  0  0
   -1.1168   -0.5626   -1.8403 H   0  0  0  0  0  0  0  0  0  0  0  0
   -0.5324   -2.1745   -0.5143 C   0  0  0  0  0  0  0  0  0  0  0  0
   -0.9444   -3.1069   -1.6539 C   0  0  0  0  0  0  0  0  0  0  0  0
   -0.5959   -2.7088   -2.6274 H   0  0  0  0  0  0  0  0  0  0  0  0
   -2.0464   -3.2167   -1.6898 H   0  0  0  0  0  0  0  0  0  0  0  0
   -0.4984   -4.1097   -1.5053 H   0  0  0  0  0  0  0  0  0  0  0  0
   -0.9088   -2.7705    0.8470 C   0  0  0  0  0  0  0  0  0  0  0  0
   -0.3469   -3.7132    0.9965 H   0  0  0  0  0  0  0  0  0  0  0  0
   -1.9925   -2.9858    0.9089 H   0  0  0  0  0  0  0  0  0  0  0  0
   -0.6428   -2.0733    1.6648 H   0  0  0  0  0  0  0  0  0  0  0  0
   -2.5242   -0.5579   -0.2344 C   0  0  0  0  0  0  0  0  0  0  0  0
   -2.7999   -0.1570    1.0884 C   0  0  0  0  0  0  0  0  0  0  0  0
   -1.9640    0.0971    1.7563 H   0  0  0  0  0  0  0  0  0  0  0  0
   -4.1175   -0.0660    1.5490 C   0  0  0  0  0  0  0  0  0  0  0  0
   -4.3064    0.2535    2.5865 H   0  0  0  0  0  0  0  0  0  0  0  0
   -5.2113   -0.3683    0.7094 C   0  0  0  0  0  0  0  0  0  0  0  0
   -4.9315   -0.7593   -0.6141 C   0  0  0  0  0  0  0  0  0  0  0  0
   -5.7648   -0.9915   -1.2962 H   0  0  0  0  0  0  0  0  0  0  0  0
   -3.6110   -0.8457   -1.0799 C   0  0  0  0  0  0  0  0  0  0  0  0
   -3.4218   -1.1357   -2.1261 H   0  0  0  0  0  0  0  0  0  0  0  0
   -6.6272   -0.2480    1.2135 C   0  0  0  0  0  0  0  0  0  0  0  0
   -6.8944    0.8121    1.4100 H   0  0  0  0  0  0  0  0  0  0  0  0
   -6.7649   -0.7940    2.1695 H   0  0  0  0  0  0  0  0  0  0  0  0
   -7.3575   -0.6473    0.4833 H   0  0  0  0  0  0  0  0  0  0  0  0
   -0.4071    1.5574   -0.1060 C   0  0  0  0  0  0  0  0  0  0  0  0
    0.3006    2.3807    0.8104 C   0  0  0  0  0  0  0  0  0  0  0  0
    0.9900    1.9011    1.5202 H   0  0  0  0  0  0  0  0  0  0  0  0
    0.1275    3.7694    0.8216 C   0  0  0  0  0  0  0  0  0  0  0  0
    0.6941    4.3794    1.5419 H   0  0  0  0  0  0  0  0  0  0  0  0
   -0.7753    4.3802   -0.0648 C   0  0  0  0  0  0  0  0  0  0  0  0
   -0.9209    5.4704   -0.0510 H   0  0  0  0  0  0  0  0  0  0  0  0
   -1.5028    3.5761   -0.9587 C   0  0  0  0  0  0  0  0  0  0  0  0
   -2.2206    4.0397   -1.6532 H   0  0  0  0  0  0  0  0  0  0  0  0
   -1.3308    2.1864   -0.9837 C   0  0  0  0  0  0  0  0  0  0  0  0
   -1.9149    1.5841   -1.6918 H   0  0  0  0  0  0  0  0  0  0  0  0
  1  5  1  0  0  0  0
  2 28  1  0  0  0  0
  3  4  1  6  0  0  0
  3  5  1  0  0  0  0
  3 14  1  0  0  0  0
  3  2  1  0  0  0  0
  5 10  1  0  0  0  0
  6  9  1  0  0  0  0
  6  5  1  0  0  0  0
  7  6  1  0  0  0  0
  8  6  1  0  0  0  0
 10 12  1  0  0  0  0
 10 11  1  0  0  0  0
 10 13  1  0  0  0  0
 14 15  1  0  0  0  0
 15 17  2  0  0  0  0
 15 16  1  0  0  0  0
 17 18  1  0  0  0  0
 19 24  1  0  0  0  0
 19 17  1  0  0  0  0
 20 19  2  0  0  0  0
 21 20  1  0  0  0  0
 22 20  1  0  0  0  0
 22 14  2  0  0  0  0
 23 22  1  0  0  0  0
 24 25  1  0  0  0  0
 24 26  1  0  0  0  0
 27 24  1  0  0  0  0
 28 29  1  0  0  0  0
 29 31  2  0  0  0  0
 29 30  1  0  0  0  0
 31 32  1  0  0  0  0
 33 34  1  0  0  0  0
 33 31  1  0  0  0  0
 35 33  2  0  0  0  0
 36 35  1  0  0  0  0
 37 35  1  0  0  0  0
 37 28  2  0  0  0  0
 38 37  1  0  0  0  0
M  END
