1,2
 OpenBabel05122313063D

 26 27  0  0  0  0  0  0  0  0999 V2000
    0.7859    1.2009   -1.5743 N   0  0  0  0  0  2  0  0  0  0  0  0
    1.6265   -0.7496    0.4927 O   0  5  0  0  0  0  0  0  0  0  0  0
    6.2422   -1.9704    0.3414 O   0  0  0  0  0  0  0  0  0  0  0  0
    3.0458    0.2567   -1.2154 C   0  0  0  0  0  0  0  0  0  0  0  0
    2.7879   -0.6173   -0.0833 C   0  0  0  0  0  0  0  0  0  0  0  0
    3.8833   -1.3720    0.4356 C   0  0  0  0  0  0  0  0  0  0  0  0
    3.6533   -2.0261    1.2859 H   0  0  0  0  0  0  0  0  0  0  0  0
    5.1652   -1.2794   -0.1120 C   0  0  0  0  0  0  0  0  0  0  0  0
    5.4188   -0.4201   -1.2197 C   0  0  0  0  0  0  0  0  0  0  0  0
    6.4364   -0.3694   -1.6295 H   0  0  0  0  0  0  0  0  0  0  0  0
    4.3726    0.3157   -1.7414 C   0  0  0  0  0  0  0  0  0  0  0  0
    4.5571    0.9801   -2.6015 H   0  0  0  0  0  0  0  0  0  0  0  0
    2.0586    1.0648   -1.8692 C   0  0  0  0  0  3  0  0  0  0  0  0
    2.4368    1.6468   -2.7393 H   0  0  0  0  0  0  0  0  0  0  0  0
   -0.0243    2.0468   -2.3979 C   0  0  0  0  0  0  0  0  0  0  0  0
    0.5457    2.6386   -3.1390 H   0  0  0  0  0  0  0  0  0  0  0  0
   -1.2683    2.6778   -1.8091 C   0  0  0  0  0  0  0  0  0  0  0  0
   -1.5103    3.7082   -2.1122 H   0  0  0  0  0  0  0  0  0  0  0  0
   -1.4915    2.4483   -0.7548 H   0  0  0  0  0  0  0  0  0  0  0  0
   -1.4019    1.5598   -2.8097 C   0  0  0  0  0  0  0  0  0  0  0  0
   -1.6994    0.5710   -2.4244 H   0  0  0  0  0  0  0  0  0  0  0  0
   -1.7360    1.7935   -3.8324 H   0  0  0  0  0  0  0  0  0  0  0  0
    6.0660   -2.8496    1.4379 C   0  0  0  0  0  0  0  0  0  0  0  0
    5.7220   -2.3094    2.3478 H   0  0  0  0  0  0  0  0  0  0  0  0
    7.0545   -3.3033    1.6372 H   0  0  0  0  0  0  0  0  0  0  0  0
    5.3342   -3.6550    1.2066 H   0  0  0  0  0  0  0  0  0  0  0  0
  3 23  1  0  0  0  0
  4  5  1  0  0  0  0
  5  6  2  0  0  0  0
  5  2  1  0  0  0  0
  6  7  1  0  0  0  0
  8  3  1  0  0  0  0
  8  6  1  0  0  0  0
  9  8  2  0  0  0  0
 10  9  1  0  0  0  0
 11  9  1  0  0  0  0
 11  4  2  0  0  0  0
 12 11  1  0  0  0  0
 13  1  1  0  0  0  0
 13  4  1  0  0  0  0
 14 13  1  0  0  0  0
 15 17  1  0  0  0  0
 15  1  1  0  0  0  0
 16 15  1  0  0  0  0
 17 19  1  0  0  0  0
 18 17  1  0  0  0  0
 20 21  1  0  0  0  0
 20 15  1  0  0  0  0
 20 17  1  0  0  0  0
 22 20  1  0  0  0  0
 23 25  1  0  0  0  0
 23 24  1  0  0  0  0
 26 23  1  0  0  0  0
M  CHG  1   2  -1
M  END
