2,3
 OpenBabel05122313063D

 33 33  0  0  0  0  0  0  0  0999 V2000
    6.0965    0.7742    0.2203 Br  0  0  0  0  0  0  0  0  0  0  0  0
    0.6723   -1.8055   -0.6256 O   0  5  0  0  0  0  0  0  0  0  0  0
   -0.3217    0.1258    1.3777 N   0  0  0  0  0  2  0  0  0  0  0  0
   -2.6183    1.9647    0.8179 N   0  3  0  0  0  0  0  0  0  0  0  0
   -2.0497    2.7976    1.0479 H   0  0  0  0  0  0  0  0  0  0  0  0
   -2.1379    1.5347   -0.0737 H   0  0  0  0  0  0  0  0  0  0  0  0
    1.9857   -0.1051    0.5308 C   0  0  0  0  0  0  0  0  0  0  0  0
    1.7970   -1.2154   -0.3960 C   0  0  0  0  0  0  0  0  0  0  0  0
    2.9725   -1.6857   -1.0758 C   0  0  0  0  0  0  0  0  0  0  0  0
    2.8339   -2.5309   -1.7654 H   0  0  0  0  0  0  0  0  0  0  0  0
    4.2176   -1.1047   -0.9016 C   0  0  0  0  0  0  0  0  0  0  0  0
    5.0904   -1.4846   -1.4529 H   0  0  0  0  0  0  0  0  0  0  0  0
    4.3752   -0.0125   -0.0086 C   0  0  0  0  0  0  0  0  0  0  0  0
    3.2845    0.4671    0.6959 C   0  0  0  0  0  0  0  0  0  0  0  0
    3.4109    1.3019    1.4024 H   0  0  0  0  0  0  0  0  0  0  0  0
    0.9537    0.4297    1.3703 C   0  0  0  0  0  3  0  0  0  0  0  0
    1.3057    1.1822    2.1148 H   0  0  0  0  0  0  0  0  0  0  0  0
   -1.1545    0.6989    2.4187 C   0  0  0  0  0  0  0  0  0  0  0  0
   -0.6782    1.6106    2.8591 H   0  0  0  0  0  0  0  0  0  0  0  0
   -1.2641   -0.0301    3.2542 H   0  0  0  0  0  0  0  0  0  0  0  0
   -2.5746    0.9924    1.9477 C   0  0  0  0  0  0  0  0  0  0  0  0
   -3.1793    1.4024    2.7817 H   0  0  0  0  0  0  0  0  0  0  0  0
   -3.0410    0.0476    1.5917 H   0  0  0  0  0  0  0  0  0  0  0  0
   -3.9990    2.4238    0.3927 C   0  0  0  0  0  0  0  0  0  0  0  0
   -4.4796    2.8116    1.3180 H   0  0  0  0  0  0  0  0  0  0  0  0
   -4.8001    1.2490   -0.1621 C   0  0  0  0  0  0  0  0  0  0  0  0
   -5.7936    1.6149   -0.4849 H   0  0  0  0  0  0  0  0  0  0  0  0
   -4.9571    0.4446    0.5810 H   0  0  0  0  0  0  0  0  0  0  0  0
   -4.2825    0.8037   -1.0355 H   0  0  0  0  0  0  0  0  0  0  0  0
   -3.8256    3.5552   -0.6180 C   0  0  0  0  0  0  0  0  0  0  0  0
   -3.3037    3.1874   -1.5245 H   0  0  0  0  0  0  0  0  0  0  0  0
   -3.2512    4.4060   -0.1952 H   0  0  0  0  0  0  0  0  0  0  0  0
   -4.8182    3.9400   -0.9198 H   0  0  0  0  0  0  0  0  0  0  0  0
  2  8  1  0  0  0  0
  3 18  1  0  0  0  0
  4  5  1  0  0  0  0
  4 21  1  0  0  0  0
  6  4  1  0  0  0  0
  7 14  1  0  0  0  0
  7 16  1  0  0  0  0
  8  7  2  0  0  0  0
  9 11  2  0  0  0  0
  9  8  1  0  0  0  0
 10  9  1  0  0  0  0
 11 13  1  0  0  0  0
 12 11  1  0  0  0  0
 13  1  1  0  0  0  0
 13 14  2  0  0  0  0
 14 15  1  0  0  0  0
 16  3  1  0  0  0  0
 16 17  1  0  0  0  0
 18 19  1  0  0  0  0
 18 20  1  0  0  0  0
 21 18  1  0  0  0  0
 21 22  1  0  0  0  0
 23 21  1  0  0  0  0
 24  4  1  0  0  0  0
 24 25  1  0  0  0  0
 26 24  1  0  0  0  0
 26 28  1  0  0  0  0
 27 26  1  0  0  0  0
 29 26  1  0  0  0  0
 30 32  1  0  0  0  0
 30 24  1  0  0  0  0
 31 30  1  0  0  0  0
 33 30  1  0  0  0  0
M  CHG  2   2  -1   4   1
M  END
