1,2
 OpenBabel05122313063D

 23 22  0  0  1  0  0  0  0  0999 V2000
    0.8032   -0.6511   -0.6565 O   0  0  0  0  0  1  0  0  0  0  0  0
    0.0328    1.9548    0.3636 N   0  0  0  0  0  2  0  0  0  0  0  0
   -0.5887    3.1983   -0.0692 C   0  0  0  0  0  0  0  0  0  0  0  0
   -0.9256    3.0764   -1.1165 H   0  0  0  0  0  0  0  0  0  0  0  0
    0.0803    4.0770   -0.0081 H   0  0  0  0  0  0  0  0  0  0  0  0
   -1.4896    3.3942    0.5472 H   0  0  0  0  0  0  0  0  0  0  0  0
    1.2169    1.9129    0.9028 C   0  0  2  0  0  3  0  0  0  0  0  0
    2.1071    3.0869    1.1897 C   0  0  0  0  0  0  0  0  0  0  0  0
    1.6796    4.0716    0.9380 H   0  0  0  0  0  0  0  0  0  0  0  0
    3.0550    2.9535    0.6278 H   0  0  0  0  0  0  0  0  0  0  0  0
    2.3798    3.0843    2.2655 H   0  0  0  0  0  0  0  0  0  0  0  0
    1.7837    0.5635    1.2576 C   0  0  0  0  0  0  0  0  0  0  0  0
    1.0736    0.0369    1.9280 H   0  0  0  0  0  0  0  0  0  0  0  0
    2.7490    0.6718    1.7855 H   0  0  0  0  0  0  0  0  0  0  0  0
    1.9546   -0.3771    0.0197 C   0  0  0  0  0  0  0  0  0  0  0  0
    2.9877    0.2583   -0.9667 C   0  0  0  0  0  0  0  0  0  0  0  0
    2.5096   -1.7340    0.5749 C   0  0  0  0  0  0  0  0  0  0  0  0
    2.4571    1.3738   -1.5321 F   0  0  0  0  0  0  0  0  0  0  0  0
    4.1345    0.6510   -0.3410 F   0  0  0  0  0  0  0  0  0  0  0  0
    3.3295   -0.5749   -1.9591 F   0  0  0  0  0  0  0  0  0  0  0  0
    3.7050   -1.5861    1.2054 F   0  0  0  0  0  0  0  0  0  0  0  0
    2.6642   -2.6470   -0.3934 F   0  0  0  0  0  0  0  0  0  0  0  0
    1.6397   -2.2420    1.4835 F   0  0  0  0  0  0  0  0  0  0  0  0
  1 15  1  0  0  0  0
  3  5  1  0  0  0  0
  3  2  1  0  0  0  0
  3  6  1  0  0  0  0
  4  3  1  0  0  0  0
  7  2  1  6  0  0  0
  7  8  1  0  0  0  0
  7 12  1  0  0  0  0
  8 11  1  0  0  0  0
  9  8  1  0  0  0  0
 10  8  1  0  0  0  0
 12 14  1  0  0  0  0
 12 13  1  0  0  0  0
 15 17  1  0  0  0  0
 15 12  1  0  0  0  0
 16 19  1  0  0  0  0
 16 15  1  0  0  0  0
 17 21  1  0  0  0  0
 17 23  1  0  0  0  0
 18 16  1  0  0  0  0
 20 16  1  0  0  0  0
 22 17  1  0  0  0  0
M  END
