1,14
 OpenBabel05122313063D

 37 38  0  0  0  0  0  0  0  0999 V2000
    1.6023    0.8818   -0.3120 O   0  5  0  0  0  0  0  0  0  0  0  0
    2.8210    0.3880   -0.4820 C   0  0  0  0  0  0  0  0  0  0  0  0
   -0.0181   -2.7832    0.1643 O   0  0  0  0  0  0  0  0  0  0  0  0
   -0.9126   -2.3247    0.2846 H   0  0  0  0  0  0  0  0  0  0  0  0
    3.0943   -1.0148   -0.4493 C   0  0  0  0  0  0  0  0  0  0  0  0
    4.4281   -1.4665   -0.6377 C   0  0  0  0  0  3  0  0  0  0  0  0
    4.6284   -2.5498   -0.6008 H   0  0  0  0  0  0  0  0  0  0  0  0
    5.4760   -0.5767   -0.8628 C   0  0  0  0  0  0  0  0  0  0  0  0
    5.1841    0.8089   -0.8839 C   0  0  0  0  0  0  0  0  0  0  0  0
    6.0208    1.5102   -1.0327 H   0  0  0  0  0  0  0  0  0  0  0  0
    3.8928    1.3078   -0.6982 C   0  0  0  0  0  0  0  0  0  0  0  0
    2.0576   -1.9858   -0.2220 C   0  0  0  0  0  0  0  0  0  0  0  0
    2.3239   -3.0570   -0.2036 H   0  0  0  0  0  0  0  0  0  0  0  0
    0.7923   -1.7041   -0.0306 N   0  0  0  0  0  2  0  0  0  0  0  0
    6.8930   -1.0530   -1.1063 C   0  0  0  0  0  0  0  0  0  0  0  0
    7.1357   -0.9421   -2.1872 H   0  0  0  0  0  0  0  0  0  0  0  0
    6.9551   -2.1546   -0.8891 H   0  0  0  0  0  0  0  0  0  0  0  0
    7.8816   -0.2850   -0.3650 N   0  0  0  0  0  0  0  0  0  0  0  0
    9.2423   -0.4849   -0.8484 C   0  0  0  0  0  0  0  0  0  0  0  0
    9.5865   -1.5440   -0.6753 H   0  0  0  0  0  0  0  0  0  0  0  0
    9.2485   -0.3282   -1.9480 H   0  0  0  0  0  0  0  0  0  0  0  0
   10.2191    0.4768   -0.1672 C   0  0  0  0  0  0  0  0  0  0  0  0
   11.2478    0.2859   -0.5375 H   0  0  0  0  0  0  0  0  0  0  0  0
    9.9519    1.5157   -0.4586 H   0  0  0  0  0  0  0  0  0  0  0  0
   10.1483    0.3379    1.3576 C   0  0  0  0  0  0  0  0  0  0  0  0
   10.5290   -0.6667    1.6506 H   0  0  0  0  0  0  0  0  0  0  0  0
   10.8066    1.0817    1.8532 H   0  0  0  0  0  0  0  0  0  0  0  0
    8.6990    0.4844    1.8339 C   0  0  0  0  0  0  0  0  0  0  0  0
    8.3504    1.5247    1.6549 H   0  0  0  0  0  0  0  0  0  0  0  0
    8.6176    0.2958    2.9245 H   0  0  0  0  0  0  0  0  0  0  0  0
    7.7773   -0.4753    1.0789 C   0  0  0  0  0  0  0  0  0  0  0  0
    6.7209   -0.3151    1.3767 H   0  0  0  0  0  0  0  0  0  0  0  0
    8.0328   -1.5360    1.3606 H   0  0  0  0  0  0  0  0  0  0  0  0
    3.5861    2.7804   -0.7174 C   0  0  0  0  0  0  0  0  0  0  0  0
    4.5010    3.3797   -0.8831 H   0  0  0  0  0  0  0  0  0  0  0  0
    2.8599    3.0322   -1.5200 H   0  0  0  0  0  0  0  0  0  0  0  0
    3.1264    3.1103    0.2389 H   0  0  0  0  0  0  0  0  0  0  0  0
  2  5  1  0  0  0  0
  2  1  1  0  0  0  0
  3  4  1  0  0  0  0
  5 12  2  0  0  0  0
  6  7  1  0  0  0  0
  6  5  1  0  0  0  0
  8  6  1  0  0  0  0
  9  8  2  0  0  0  0
  9 11  1  0  0  0  0
 10  9  1  0  0  0  0
 11  2  2  0  0  0  0
 12 13  1  0  0  0  0
 12 14  1  0  0  0  0
 14  3  1  0  0  0  0
 15 17  1  0  0  0  0
 15  8  1  0  0  0  0
 15 18  1  0  0  0  0
 16 15  1  0  0  0  0
 18 31  1  0  0  0  0
 19 20  1  0  0  0  0
 19 18  1  0  0  0  0
 19 22  1  0  0  0  0
 21 19  1  0  0  0  0
 22 25  1  0  0  0  0
 23 22  1  0  0  0  0
 24 22  1  0  0  0  0
 25 26  1  0  0  0  0
 25 28  1  0  0  0  0
 25 27  1  0  0  0  0
 28 30  1  0  0  0  0
 29 28  1  0  0  0  0
 31 33  1  0  0  0  0
 31 32  1  0  0  0  0
 31 28  1  0  0  0  0
 34 11  1  0  0  0  0
 34 37  1  0  0  0  0
 35 34  1  0  0  0  0
 36 34  1  0  0  0  0
M  CHG  1   1  -1
M  END
