4,5
 OpenBabel05122313063D

 45 48  0  0  1  0  0  0  0  0999 V2000
    6.3403   -2.9878    0.7607 Br  0  0  0  0  0  0  0  0  0  0  0  0
   -2.9686    3.6274   -0.1947 S   0  0  0  0  0  0  0  0  0  0  0  0
    3.3860    5.6354   -0.1155 S   0  0  0  0  0  0  0  0  0  0  0  0
    0.5810   -2.6370   -1.1313 O   0  0  0  0  0  1  0  0  0  0  0  0
    0.5351    0.0566   -0.1534 N   0  0  0  0  0  2  0  0  0  0  0  0
    2.5430    0.9528   -0.0872 N   0  0  0  0  0  0  0  0  0  0  0  0
    3.5550    1.0200   -0.1877 H   0  0  0  0  0  0  0  0  0  0  0  0
    1.8257   -2.6524   -0.7380 C   0  0  1  0  0  3  0  0  0  0  0  0
    2.6088   -3.8327   -0.9353 C   0  0  0  0  0  0  0  0  0  0  0  0
    2.1154   -4.6820   -1.4303 H   0  0  0  0  0  0  0  0  0  0  0  0
    3.9295   -3.9348   -0.5094 C   0  0  0  0  0  0  0  0  0  0  0  0
    4.4921   -4.8674   -0.6608 H   0  0  0  0  0  0  0  0  0  0  0  0
    4.5447   -2.8395    0.1340 C   0  0  0  0  0  0  0  0  0  0  0  0
    3.8388   -1.6529    0.3195 C   0  0  0  0  0  0  0  0  0  0  0  0
    4.3285   -0.8130    0.8359 H   0  0  0  0  0  0  0  0  0  0  0  0
    2.4978   -1.5292   -0.1230 C   0  0  0  0  0  0  0  0  0  0  0  0
    1.8566   -0.2306   -0.0861 C   0  0  0  0  0  0  0  0  0  0  0  0
    0.3893    1.4443   -0.2671 C   0  0  0  0  0  0  0  0  0  0  0  0
    1.6632    2.0188   -0.2200 C   0  0  0  0  0  0  0  0  0  0  0  0
   -0.6906    3.8795    1.4343 C   0  0  0  0  0  0  0  0  0  0  0  0
   -1.3981    4.0203    2.2758 H   0  0  0  0  0  0  0  0  0  0  0  0
    0.1613    3.2722    1.7972 H   0  0  0  0  0  0  0  0  0  0  0  0
   -0.2808    4.8719    1.1493 H   0  0  0  0  0  0  0  0  0  0  0  0
   -1.3524    3.1882    0.2854 C   0  0  0  0  0  0  0  0  0  0  0  0
   -0.9017    2.1060   -0.4691 C   0  0  0  0  0  0  0  0  0  0  0  0
   -1.8732    1.6548   -1.4310 C   0  0  0  0  0  0  0  0  0  0  0  0
   -1.6991    0.8053   -2.1053 H   0  0  0  0  0  0  0  0  0  0  0  0
   -3.0527    2.3664   -1.4069 C   0  0  0  0  0  0  0  0  0  0  0  0
   -4.2911    2.1550   -2.2197 C   0  0  0  0  0  0  0  0  0  0  0  0
   -5.1482    1.8461   -1.5843 H   0  0  0  0  0  0  0  0  0  0  0  0
   -4.5989    3.0692   -2.7688 H   0  0  0  0  0  0  0  0  0  0  0  0
   -4.1172    1.3523   -2.9620 H   0  0  0  0  0  0  0  0  0  0  0  0
    4.1358    3.3173    1.2913 C   0  0  0  0  0  0  0  0  0  0  0  0
    4.5241    4.0566    2.0192 H   0  0  0  0  0  0  0  0  0  0  0  0
    3.6196    2.5229    1.8671 H   0  0  0  0  0  0  0  0  0  0  0  0
    5.0247    2.8593    0.8020 H   0  0  0  0  0  0  0  0  0  0  0  0
    3.1989    3.9555    0.3098 C   0  0  0  0  0  0  0  0  0  0  0  0
    2.0996    3.4043   -0.3530 C   0  0  0  0  0  0  0  0  0  0  0  0
    1.4240    4.3625   -1.1907 C   0  0  0  0  0  0  0  0  0  0  0  0
    0.5377    4.1142   -1.7897 H   0  0  0  0  0  0  0  0  0  0  0  0
    1.9931    5.6176   -1.1751 C   0  0  0  0  0  0  0  0  0  0  0  0
    1.5746    6.8444   -1.9240 C   0  0  0  0  0  0  0  0  0  0  0  0
    1.3479    7.6910   -1.2428 H   0  0  0  0  0  0  0  0  0  0  0  0
    2.3597    7.1910   -2.6282 H   0  0  0  0  0  0  0  0  0  0  0  0
    0.6620    6.6290   -2.5121 H   0  0  0  0  0  0  0  0  0  0  0  0
  2 24  1  0  0  0  0
  3 37  1  0  0  0  0
  5 17  1  0  0  0  0
  6 17  1  0  0  0  0
  7  6  1  0  0  0  0
  8  4  1  6  0  0  0
  8 16  1  0  0  0  0
  9  8  1  0  0  0  0
  9 11  2  0  0  0  0
 10  9  1  0  0  0  0
 11 13  1  0  0  0  0
 12 11  1  0  0  0  0
 13 14  2  0  0  0  0
 13  1  1  0  0  0  0
 14 15  1  0  0  0  0
 16 17  2  0  0  0  0
 16 14  1  0  0  0  0
 18 19  2  0  0  0  0
 18  5  1  0  0  0  0
 19  6  1  0  0  0  0
 20 22  1  0  0  0  0
 20 21  1  0  0  0  0
 23 20  1  0  0  0  0
 24 20  1  0  0  0  0
 25 18  1  0  0  0  0
 25 24  2  0  0  0  0
 26 28  2  0  0  0  0
 26 25  1  0  0  0  0
 27 26  1  0  0  0  0
 28  2  1  0  0  0  0
 29 30  1  0  0  0  0
 29 28  1  0  0  0  0
 31 29  1  0  0  0  0
 32 29  1  0  0  0  0
 33 35  1  0  0  0  0
 33 34  1  0  0  0  0
 36 33  1  0  0  0  0
 37 33  1  0  0  0  0
 38 19  1  0  0  0  0
 38 37  2  0  0  0  0
 39 41  2  0  0  0  0
 39 38  1  0  0  0  0
 40 39  1  0  0  0  0
 41  3  1  0  0  0  0
 42 43  1  0  0  0  0
 42 41  1  0  0  0  0
 44 42  1  0  0  0  0
 45 42  1  0  0  0  0
M  END
