1,3
 OpenBabel05122313063D

 23 25  0  0  0  0  0  0  0  0999 V2000
   -0.0866    0.1695   -1.2630 O   0  0  0  0  0  1  0  0  0  0  0  0
   -0.0495    1.3389   -0.7068 N   0  0  0  0  0  0  0  0  0  0  0  0
    2.5745   -0.0325   -0.8015 N   0  0  0  0  0  2  0  0  0  0  0  0
   -1.2409    1.9310   -0.4239 C   0  0  0  0  0  0  0  0  0  0  0  0
   -2.1071    1.2942   -0.6479 H   0  0  0  0  0  0  0  0  0  0  0  0
   -1.3118    3.2270    0.0883 C   0  0  0  0  0  0  0  0  0  0  0  0
   -2.3026    3.6521    0.2993 H   0  0  0  0  0  0  0  0  0  0  0  0
   -0.1397    3.9454    0.2919 C   0  0  0  0  0  0  0  0  0  0  0  0
   -0.1613    4.9843    0.6505 H   0  0  0  0  0  0  0  0  0  0  0  0
    1.1086    3.3328    0.0248 C   0  0  0  0  0  0  0  0  0  0  0  0
    2.3284    4.0791    0.1583 C   0  0  0  0  0  0  0  0  0  0  0  0
    2.2602    5.1242    0.4943 H   0  0  0  0  0  0  0  0  0  0  0  0
    3.5354    3.5206   -0.1627 C   0  0  0  0  0  0  0  0  0  0  0  0
    4.4638    4.1081   -0.1044 H   0  0  0  0  0  0  0  0  0  0  0  0
    3.6251    2.1418   -0.5513 C   0  0  0  0  0  0  0  0  0  0  0  0
    4.8803    1.5529   -0.8459 C   0  0  0  0  0  0  0  0  0  0  0  0
    5.7836    2.1812   -0.8159 H   0  0  0  0  0  0  0  0  0  0  0  0
    4.9542    0.2020   -1.1514 C   0  0  0  0  0  0  0  0  0  0  0  0
    5.9069   -0.2873   -1.3969 H   0  0  0  0  0  0  0  0  0  0  0  0
    3.7701   -0.5568   -1.0822 C   0  0  0  0  0  0  0  0  0  0  0  0
    3.7905   -1.6482   -1.2262 H   0  0  0  0  0  0  0  0  0  0  0  0
    2.4485    1.3179   -0.6104 C   0  0  0  0  0  0  0  0  0  0  0  0
    1.1619    1.9692   -0.4082 C   0  0  0  0  0  0  0  0  0  0  0  0
  1  2  1  0  0  0  0
  2  4  1  0  0  0  0
  2 23  1  0  0  0  0
  3 22  1  0  0  0  0
  4  6  2  0  0  0  0
  5  4  1  0  0  0  0
  6  8  1  0  0  0  0
  6  7  1  0  0  0  0
  8  9  1  0  0  0  0
 10 11  1  0  0  0  0
 10  8  2  0  0  0  0
 11 12  1  0  0  0  0
 13 14  1  0  0  0  0
 13 11  2  0  0  0  0
 15 13  1  0  0  0  0
 16 17  1  0  0  0  0
 16 15  2  0  0  0  0
 18 20  2  0  0  0  0
 18 16  1  0  0  0  0
 19 18  1  0  0  0  0
 20  3  1  0  0  0  0
 21 20  1  0  0  0  0
 22 15  1  0  0  0  0
 22 23  2  0  0  0  0
 23 10  1  0  0  0  0
M  END
