1,6
 OpenBabel05122313063D

 14 14  0  0  1  0  0  0  0  0999 V2000
    0.4883   -0.9788   -2.2483 O   0  5  0  0  0  0  0  0  0  0  0  0
    2.2613   -1.5815   -3.5469 O   0  0  0  0  0  0  0  0  0  0  0  0
    4.8879   -2.7672    2.4970 O   0  0  0  0  0  0  0  0  0  0  0  0
    6.1253   -3.0743    0.6147 O   0  0  0  0  0  0  0  0  0  0  0  0
    6.7855   -3.2788    1.3116 H   0  0  0  0  0  0  0  0  0  0  0  0
    1.7733   -1.7514   -0.0002 N   0  0  0  0  0  2  0  0  0  0  0  0
    2.6717   -2.0842    0.9279 N   0  0  0  0  0  0  0  0  0  0  0  0
    2.4657   -2.0546    1.9291 H   0  0  0  0  0  0  0  0  0  0  0  0
    2.3989   -1.8784   -1.1990 C   0  0  2  0  0  3  0  0  0  0  0  0
    3.7274   -2.3161   -1.0091 C   0  0  0  0  0  0  0  0  0  0  0  0
    4.4741   -2.4899   -1.7880 H   0  0  0  0  0  0  0  0  0  0  0  0
    3.8771   -2.4340    0.3765 C   0  0  0  0  0  0  0  0  0  0  0  0
    1.6788   -1.4604   -2.4673 C   0  0  0  0  0  0  0  0  0  0  0  0
    4.9857   -2.7705    1.2764 C   0  0  0  0  0  0  0  0  0  0  0  0
  2 13  2  0  0  0  0
  4 14  1  0  0  0  0
  4  5  1  0  0  0  0
  6  7  1  0  0  0  0
  7  8  1  0  0  0  0
  9 13  1  1  0  0  0
  9 10  1  0  0  0  0
  9  6  1  0  0  0  0
 10 12  2  0  0  0  0
 11 10  1  0  0  0  0
 12  7  1  0  0  0  0
 12 14  1  0  0  0  0
 13  1  1  0  0  0  0
 14  3  2  0  0  0  0
M  CHG  1   1  -1
M  END
