1,4
 OpenBabel05122313063D

 28 29  0  0  1  0  0  0  0  0999 V2000
    0.8851   -1.5194   -0.2770 O   0  5  0  0  0  0  0  0  0  0  0  0
    4.4997    0.3722    0.0624 N   0  0  0  0  0  0  0  0  0  0  0  0
    3.1853   -1.6689   -0.1224 N   0  0  0  0  0  0  0  0  0  0  0  0
    0.9281    1.1681   -0.1156 N   0  0  0  0  0  2  0  0  0  0  0  0
    3.4369    2.4688    0.1045 N   0  0  0  0  0  0  0  0  0  0  0  0
    5.5049   -1.7209    0.0257 N   0  0  0  0  0  0  0  0  0  0  0  0
    4.3503   -0.9678   -0.0139 C   0  0  2  0  0  3  0  0  0  0  0  0
    2.0526   -0.9671   -0.1800 C   0  0  0  0  0  0  0  0  0  0  0  0
    2.1012    0.4782   -0.0961 C   0  0  2  0  0  3  0  0  0  0  0  0
    1.0000    2.5227   -0.0921 C   0  0  1  0  0  3  0  0  0  0  0  0
    2.2903    3.1443    0.0340 C   0  0  0  0  0  0  0  0  0  0  0  0
    3.3723    1.1069    0.0214 C   0  0  0  0  0  0  0  0  0  0  0  0
    6.8061   -1.0980    0.1356 C   0  0  0  0  0  0  0  0  0  0  0  0
    6.6674   -0.0043    0.1950 H   0  0  0  0  0  0  0  0  0  0  0  0
    7.4383   -1.3452   -0.7473 H   0  0  0  0  0  0  0  0  0  0  0  0
    7.3403   -1.4582    1.0441 H   0  0  0  0  0  0  0  0  0  0  0  0
    5.4798   -3.1638   -0.0674 C   0  0  0  0  0  0  0  0  0  0  0  0
    6.0597   -3.5122   -0.9521 H   0  0  0  0  0  0  0  0  0  0  0  0
    4.4307   -3.4939   -0.1621 H   0  0  0  0  0  0  0  0  0  0  0  0
    5.9365   -3.6268    0.8371 H   0  0  0  0  0  0  0  0  0  0  0  0
    2.4071    4.6495    0.0967 C   0  0  0  0  0  0  0  0  0  0  0  0
    2.0711    5.1243   -0.8490 H   0  0  0  0  0  0  0  0  0  0  0  0
    3.4685    4.9071    0.2607 H   0  0  0  0  0  0  0  0  0  0  0  0
    1.7976    5.0843    0.9156 H   0  0  0  0  0  0  0  0  0  0  0  0
   -0.2685    3.3076   -0.2452 C   0  0  0  0  0  0  0  0  0  0  0  0
   -0.9578    3.1673    0.6136 H   0  0  0  0  0  0  0  0  0  0  0  0
   -0.8063    2.9624   -1.1507 H   0  0  0  0  0  0  0  0  0  0  0  0
   -0.0702    4.3883   -0.3434 H   0  0  0  0  0  0  0  0  0  0  0  0
  1  8  1  0  0  0  0
  3  7  1  0  0  0  0
  4  9  1  0  0  0  0
  4 10  1  0  0  0  0
  6 13  1  0  0  0  0
  7  6  1  1  0  0  0
  7  2  1  0  0  0  0
  8  3  2  0  0  0  0
  9  8  1  1  0  0  0
  9 12  1  0  0  0  0
 10 25  1  6  0  0  0
 10 11  1  0  0  0  0
 11 21  1  0  0  0  0
 11  5  2  0  0  0  0
 12  2  2  0  0  0  0
 12  5  1  0  0  0  0
 13 14  1  0  0  0  0
 13 16  1  0  0  0  0
 15 13  1  0  0  0  0
 17  6  1  0  0  0  0
 17 20  1  0  0  0  0
 18 17  1  0  0  0  0
 19 17  1  0  0  0  0
 21 23  1  0  0  0  0
 21 24  1  0  0  0  0
 22 21  1  0  0  0  0
 25 26  1  0  0  0  0
 27 25  1  0  0  0  0
 28 25  1  0  0  0  0
M  CHG  1   1  -1
M  END
