1,4
 OpenBabel05122313063D

 28 27  0  0  1  0  0  0  0  0999 V2000
   -0.3526   -1.5780    1.3401 O   0  5  0  0  0  0  0  0  0  0  0  0
    1.5847   -2.7615    0.5324 C   0  0  0  0  0  0  0  0  0  0  0  0
    2.1505   -3.6888    0.6929 H   0  0  0  0  0  0  0  0  0  0  0  0
    1.5396   -0.7395   -0.8190 N   0  0  0  0  0  2  0  0  0  0  0  0
    0.4463   -2.5911    1.3430 C   0  0  0  0  0  0  0  0  0  0  0  0
    3.3588   -2.3705   -1.1895 C   0  0  0  0  0  0  0  0  0  0  0  0
    4.1457   -1.5908   -1.1288 H   0  0  0  0  0  0  0  0  0  0  0  0
    3.1711   -2.5681   -2.2653 H   0  0  0  0  0  0  0  0  0  0  0  0
    3.7382   -3.3018   -0.7332 H   0  0  0  0  0  0  0  0  0  0  0  0
    2.1014   -1.8981   -0.4842 C   0  0  1  0  0  3  0  0  0  0  0  0
    0.0797   -3.6796    2.3309 C   0  0  0  0  0  0  0  0  0  0  0  0
    0.0592   -3.2526    3.3548 H   0  0  0  0  0  0  0  0  0  0  0  0
    0.7717   -4.5415    2.3086 H   0  0  0  0  0  0  0  0  0  0  0  0
   -0.9507   -4.0331    2.1185 H   0  0  0  0  0  0  0  0  0  0  0  0
    2.0736    0.1059   -1.8791 C   0  0  0  0  0  0  0  0  0  0  0  0
    1.3159    0.1820   -2.6927 H   0  0  0  0  0  0  0  0  0  0  0  0
    2.9885   -0.3214   -2.3319 H   0  0  0  0  0  0  0  0  0  0  0  0
    3.3596    1.5366   -0.2045 C   0  0  0  0  0  0  0  0  0  0  0  0
    3.5837    2.5910    0.0950 H   0  0  0  0  0  0  0  0  0  0  0  0
    2.8869    1.0484    0.6818 H   0  0  0  0  0  0  0  0  0  0  0  0
    2.3903    1.5229   -1.3764 C   0  0  0  0  0  0  0  0  0  0  0  0
    2.8060    2.1119   -2.2212 H   0  0  0  0  0  0  0  0  0  0  0  0
    1.4574    2.0309   -1.0520 H   0  0  0  0  0  0  0  0  0  0  0  0
    4.5529    0.8612   -0.5711 O   0  0  0  0  0  0  0  0  0  0  0  0
    5.4770    0.7876    0.4870 C   0  0  0  0  0  0  0  0  0  0  0  0
    5.7996    1.8006    0.8329 H   0  0  0  0  0  0  0  0  0  0  0  0
    6.3689    0.2400    0.1236 H   0  0  0  0  0  0  0  0  0  0  0  0
    5.0603    0.2464    1.3717 H   0  0  0  0  0  0  0  0  0  0  0  0
  1  5  1  0  0  0  0
  2  3  1  0  0  0  0
  2  5  2  0  0  0  0
  5 11  1  0  0  0  0
  6  7  1  0  0  0  0
  6  9  1  0  0  0  0
  6 10  1  0  0  0  0
  8  6  1  0  0  0  0
 10  4  1  1  0  0  0
 10  2  1  0  0  0  0
 11 12  1  0  0  0  0
 13 11  1  0  0  0  0
 14 11  1  0  0  0  0
 15 21  1  0  0  0  0
 15  4  1  0  0  0  0
 16 15  1  0  0  0  0
 17 15  1  0  0  0  0
 18 19  1  0  0  0  0
 18 20  1  0  0  0  0
 21 23  1  0  0  0  0
 21 18  1  0  0  0  0
 22 21  1  0  0  0  0
 24 18  1  0  0  0  0
 24 25  1  0  0  0  0
 25 26  1  0  0  0  0
 25 28  1  0  0  0  0
 27 25  1  0  0  0  0
M  CHG  1   1  -1
M  END
