1,32
 OpenBabel05122313063D

 36 35  0  0  1  0  0  0  0  0999 V2000
   -1.0183    1.5427   -0.4335 O   0  0  0  0  0  1  0  0  0  0  0  0
   -2.1615    1.5892    0.1661 C   0  0  2  0  0  3  0  0  0  0  0  0
   -2.9520    0.4772    0.4557 C   0  0  0  0  0  0  0  0  0  0  0  0
   -3.8799    0.6563    0.9968 H   0  0  0  0  0  0  0  0  0  0  0  0
   -2.7070   -0.8374   -0.0519 C   0  0  0  0  0  0  0  0  0  0  0  0
   -2.5886    3.0265    0.5365 C   0  0  0  0  0  0  0  0  0  0  0  0
   -1.5270    3.5845    1.5110 C   0  0  0  0  0  0  0  0  0  0  0  0
   -1.7401    4.6461    1.7533 H   0  0  0  0  0  0  0  0  0  0  0  0
   -0.5159    3.5172    1.0648 H   0  0  0  0  0  0  0  0  0  0  0  0
   -1.5185    3.0085    2.4588 H   0  0  0  0  0  0  0  0  0  0  0  0
   -2.5962    3.8665   -0.7585 C   0  0  0  0  0  0  0  0  0  0  0  0
   -3.3607    3.4917   -1.4693 H   0  0  0  0  0  0  0  0  0  0  0  0
   -1.6108    3.8188   -1.2599 H   0  0  0  0  0  0  0  0  0  0  0  0
   -2.8277    4.9272   -0.5301 H   0  0  0  0  0  0  0  0  0  0  0  0
   -3.9727    3.0973    1.1969 C   0  0  0  0  0  0  0  0  0  0  0  0
   -4.7670    2.7072    0.5292 H   0  0  0  0  0  0  0  0  0  0  0  0
   -4.2204    4.1524    1.4329 H   0  0  0  0  0  0  0  0  0  0  0  0
   -4.0061    2.5275    2.1472 H   0  0  0  0  0  0  0  0  0  0  0  0
   -3.8836   -1.8616    0.0702 C   0  0  0  0  0  0  0  0  0  0  0  0
   -4.8900   -1.4314    1.1647 C   0  0  0  0  0  0  0  0  0  0  0  0
   -5.6517   -2.2280    1.2813 H   0  0  0  0  0  0  0  0  0  0  0  0
   -5.4319   -0.5018    0.9065 H   0  0  0  0  0  0  0  0  0  0  0  0
   -4.3954   -1.2880    2.1457 H   0  0  0  0  0  0  0  0  0  0  0  0
   -4.6695   -1.9116   -1.2616 C   0  0  0  0  0  0  0  0  0  0  0  0
   -5.5398   -2.5934   -1.1622 H   0  0  0  0  0  0  0  0  0  0  0  0
   -4.0623   -2.2700   -2.1147 H   0  0  0  0  0  0  0  0  0  0  0  0
   -5.0494   -0.9032   -1.5210 H   0  0  0  0  0  0  0  0  0  0  0  0
   -3.3915   -3.2680    0.4899 C   0  0  0  0  0  0  0  0  0  0  0  0
   -4.2634   -3.8934    0.7689 H   0  0  0  0  0  0  0  0  0  0  0  0
   -2.7256   -3.2040    1.3743 H   0  0  0  0  0  0  0  0  0  0  0  0
   -2.8493   -3.8072   -0.3040 H   0  0  0  0  0  0  0  0  0  0  0  0
   -1.5484   -1.1237   -0.6402 N   0  0  0  0  0  2  0  0  0  0  0  0
   -1.3254   -2.3136   -1.4562 C   0  0  0  0  0  0  0  0  0  0  0  0
   -2.2443   -2.6559   -1.9660 H   0  0  0  0  0  0  0  0  0  0  0  0
   -0.9036   -3.1523   -0.8684 H   0  0  0  0  0  0  0  0  0  0  0  0
   -0.5764   -2.0748   -2.2332 H   0  0  0  0  0  0  0  0  0  0  0  0
  2  1  1  6  0  0  0
  2  3  1  0  0  0  0
  2  6  1  0  0  0  0
  3  4  1  0  0  0  0
  5 19  1  0  0  0  0
  5  3  2  0  0  0  0
  6 15  1  0  0  0  0
  6  7  1  0  0  0  0
  7  8  1  0  0  0  0
  7 10  1  0  0  0  0
  9  7  1  0  0  0  0
 11 14  1  0  0  0  0
 11  6  1  0  0  0  0
 12 11  1  0  0  0  0
 13 11  1  0  0  0  0
 15 17  1  0  0  0  0
 15 18  1  0  0  0  0
 16 15  1  0  0  0  0
 19 28  1  0  0  0  0
 19 20  1  0  0  0  0
 20 21  1  0  0  0  0
 20 23  1  0  0  0  0
 22 20  1  0  0  0  0
 24 25  1  0  0  0  0
 24 19  1  0  0  0  0
 26 24  1  0  0  0  0
 27 24  1  0  0  0  0
 28 29  1  0  0  0  0
 28 30  1  0  0  0  0
 31 28  1  0  0  0  0
 32  5  1  0  0  0  0
 33 35  1  0  0  0  0
 33 32  1  0  0  0  0
 34 33  1  0  0  0  0
 36 33  1  0  0  0  0
M  END
