1,8
 OpenBabel05122313063D

 14 13  0  0  0  0  0  0  0  0999 V2000
    1.2723    0.2281    1.8505 O   0  5  0  0  0  0  0  0  0  0  0  0
    2.1253    1.2447    1.8050 C   0  0  0  0  0  0  0  0  0  0  0  0
    2.4982    1.8416    2.8079 O   0  0  0  0  0  0  0  0  0  0  0  0
    2.5875    1.5958    0.3979 C   0  0  0  0  0  0  0  0  0  0  0  0
    3.6536    2.4275    0.2704 C   0  0  0  0  0  0  0  0  0  0  0  0
    4.0697    2.8435    1.1994 H   0  0  0  0  0  0  0  0  0  0  0  0
    4.1114    2.6916   -0.6903 H   0  0  0  0  0  0  0  0  0  0  0  0
    1.8416    0.9503   -0.5928 N   0  0  0  0  0  2  0  0  0  0  0  0
    1.5707    1.4096   -1.8501 C   0  0  0  0  0  0  0  0  0  0  0  0
    0.9382    0.7170   -2.6749 O   0  0  0  0  0  0  0  0  0  0  0  0
    1.9927    2.8149   -2.2503 C   0  0  0  0  0  0  0  0  0  0  0  0
    1.3022    3.1388   -3.0496 H   0  0  0  0  0  0  0  0  0  0  0  0
    1.9668    3.5293   -1.4055 H   0  0  0  0  0  0  0  0  0  0  0  0
    3.0204    2.8141   -2.6679 H   0  0  0  0  0  0  0  0  0  0  0  0
  2  1  1  0  0  0  0
  2  3  2  0  0  0  0
  4  2  1  0  0  0  0
  5  4  2  0  0  0  0
  5  6  1  0  0  0  0
  7  5  1  0  0  0  0
  8  4  1  0  0  0  0
  9  8  1  0  0  0  0
 10  9  2  0  0  0  0
 11  9  1  0  0  0  0
 11 13  1  0  0  0  0
 12 11  1  0  0  0  0
 14 11  1  0  0  0  0
M  CHG  1   1  -1
M  END
