3,7
 OpenBabel05122313063D

 33 33  0  0  0  0  0  0  0  0999 V2000
    4.5237   -1.8449    1.0851 Br  0  0  0  0  0  0  0  0  0  0  0  0
    6.8474    2.7008   -1.1481 Cl  0  0  0  0  0  0  0  0  0  0  0  0
    0.5371    1.5969   -1.3452 N   0  0  0  0  0  2  0  0  0  0  0  0
   -1.3836    3.0218    0.3122 N   0  3  0  0  0  0  0  0  0  0  0  0
   -0.5514    2.5518    0.8483 H   0  0  0  0  0  0  0  0  0  0  0  0
   -1.9778    2.1451    0.1468 H   0  0  0  0  0  0  0  0  0  0  0  0
    2.0266   -0.5339   -0.0311 O   0  5  0  0  0  0  0  0  0  0  0  0
    2.9882    1.4490   -1.0156 C   0  0  0  0  0  0  0  0  0  0  0  0
    3.0558    0.2091   -0.2765 C   0  0  0  0  0  0  0  0  0  0  0  0
    4.3709   -0.1953    0.1389 C   0  0  0  0  0  0  0  0  0  0  0  0
    5.5179    0.5506   -0.1105 C   0  0  0  0  0  0  0  0  0  0  0  0
    6.4987    0.2046    0.2421 H   0  0  0  0  0  0  0  0  0  0  0  0
    5.4094    1.7615   -0.8279 C   0  0  0  0  0  0  0  0  0  0  0  0
    4.1676    2.1939   -1.2806 C   0  0  0  0  0  0  0  0  0  0  0  0
    4.0958    3.1316   -1.8514 H   0  0  0  0  0  0  0  0  0  0  0  0
    1.7570    1.9942   -1.5501 C   0  0  0  0  0  3  0  0  0  0  0  0
    1.9128    2.8791   -2.2123 H   0  0  0  0  0  0  0  0  0  0  0  0
   -0.5279    2.3947   -1.9441 C   0  0  0  0  0  0  0  0  0  0  0  0
   -1.3893    1.7323   -2.1671 H   0  0  0  0  0  0  0  0  0  0  0  0
   -0.2001    2.8581   -2.9017 H   0  0  0  0  0  0  0  0  0  0  0  0
   -0.9626    3.5349   -1.0109 C   0  0  0  0  0  0  0  0  0  0  0  0
   -0.1302    4.2541   -0.8699 H   0  0  0  0  0  0  0  0  0  0  0  0
   -1.8178    4.0773   -1.4649 H   0  0  0  0  0  0  0  0  0  0  0  0
   -2.0828    3.9690    1.2334 C   0  0  0  0  0  0  0  0  0  0  0  0
   -2.9047    4.4291    0.6415 H   0  0  0  0  0  0  0  0  0  0  0  0
   -1.1222    5.0522    1.7210 C   0  0  0  0  0  0  0  0  0  0  0  0
   -0.2708    4.5994    2.2694 H   0  0  0  0  0  0  0  0  0  0  0  0
   -1.6486    5.7383    2.4122 H   0  0  0  0  0  0  0  0  0  0  0  0
   -0.7189    5.6644    0.8902 H   0  0  0  0  0  0  0  0  0  0  0  0
   -2.6835    3.1509    2.3769 C   0  0  0  0  0  0  0  0  0  0  0  0
   -3.4227    2.4177    1.9977 H   0  0  0  0  0  0  0  0  0  0  0  0
   -3.1991    3.8204    3.0919 H   0  0  0  0  0  0  0  0  0  0  0  0
   -1.8902    2.5978    2.9189 H   0  0  0  0  0  0  0  0  0  0  0  0
  2 13  1  0  0  0  0
  4  5  1  0  0  0  0
  4 24  1  0  0  0  0
  6  4  1  0  0  0  0
  8  9  1  0  0  0  0
  9  7  1  0  0  0  0
  9 10  2  0  0  0  0
 10  1  1  0  0  0  0
 11 10  1  0  0  0  0
 11 12  1  0  0  0  0
 13 11  2  0  0  0  0
 14  8  2  0  0  0  0
 14 13  1  0  0  0  0
 15 14  1  0  0  0  0
 16  3  1  0  0  0  0
 16  8  1  0  0  0  0
 17 16  1  0  0  0  0
 18  3  1  0  0  0  0
 18 21  1  0  0  0  0
 19 18  1  0  0  0  0
 20 18  1  0  0  0  0
 21 22  1  0  0  0  0
 21  4  1  0  0  0  0
 23 21  1  0  0  0  0
 24 26  1  0  0  0  0
 24 30  1  0  0  0  0
 25 24  1  0  0  0  0
 26 27  1  0  0  0  0
 26 28  1  0  0  0  0
 29 26  1  0  0  0  0
 30 33  1  0  0  0  0
 30 32  1  0  0  0  0
 31 30  1  0  0  0  0
M  CHG  2   4   1   7  -1
M  END
