1,4
 OpenBabel05122313063D

 25 25  0  0  0  0  0  0  0  0999 V2000
    1.5672    1.7263    0.0619 N   0  0  0  0  0  2  0  0  0  0  0  0
    5.3345    1.7388    0.2040 O   0  0  0  0  0  0  0  0  0  0  0  0
    4.3074    1.8546    0.1948 H   0  0  0  0  0  0  0  0  0  0  0  0
    2.0778   -0.8854   -0.3596 O   0  5  0  0  0  0  0  0  0  0  0  0
    2.8509    1.2856    0.0497 N   0  0  0  0  0  0  0  0  0  0  0  0
    3.0300   -0.0377   -0.1628 C   0  0  0  0  0  0  0  0  0  0  0  0
    4.4358   -0.4870   -0.1773 C   0  0  0  0  0  0  0  0  0  0  0  0
    1.3679    3.0189    0.1122 C   0  0  0  0  0  3  0  0  0  0  0  0
    5.5241    0.4330    0.0026 C   0  0  0  0  0  0  0  0  0  0  0  0
   -0.0323    3.5504    0.1219 C   0  0  0  0  0  0  0  0  0  0  0  0
   -0.8000    2.7550    0.0700 H   0  0  0  0  0  0  0  0  0  0  0  0
   -0.2115    4.1727    1.0265 H   0  0  0  0  0  0  0  0  0  0  0  0
   -0.1853    4.2305   -0.7439 H   0  0  0  0  0  0  0  0  0  0  0  0
    6.8490   -0.0671   -0.0362 C   0  0  0  0  0  0  0  0  0  0  0  0
    7.6691    0.6521    0.1029 H   0  0  0  0  0  0  0  0  0  0  0  0
    2.5211    3.9804    0.1434 C   0  0  0  0  0  0  0  0  0  0  0  0
    3.1998    3.8032   -0.7174 H   0  0  0  0  0  0  0  0  0  0  0  0
    2.1779    5.0309    0.1283 H   0  0  0  0  0  0  0  0  0  0  0  0
    3.1418    3.8175    1.0507 H   0  0  0  0  0  0  0  0  0  0  0  0
    4.7178   -1.8571   -0.3861 C   0  0  0  0  0  0  0  0  0  0  0  0
    3.8614   -2.5336   -0.5222 H   0  0  0  0  0  0  0  0  0  0  0  0
    6.0280   -2.3332   -0.4193 C   0  0  0  0  0  0  0  0  0  0  0  0
    6.2290   -3.4023   -0.5812 H   0  0  0  0  0  0  0  0  0  0  0  0
    7.0939   -1.4248   -0.2425 C   0  0  0  0  0  0  0  0  0  0  0  0
    8.1334   -1.7874   -0.2667 H   0  0  0  0  0  0  0  0  0  0  0  0
  1  8  1  0  0  0  0
  3  2  1  0  0  0  0
  4  6  1  0  0  0  0
  5  1  1  0  0  0  0
  6  5  2  0  0  0  0
  7  6  1  0  0  0  0
  7  9  1  0  0  0  0
  8 10  1  0  0  0  0
  8 16  1  0  0  0  0
  9  2  1  0  0  0  0
 10 12  1  0  0  0  0
 11 10  1  0  0  0  0
 13 10  1  0  0  0  0
 14  9  2  0  0  0  0
 14 15  1  0  0  0  0
 16 19  1  0  0  0  0
 17 16  1  0  0  0  0
 18 16  1  0  0  0  0
 20  7  2  0  0  0  0
 21 20  1  0  0  0  0
 22 20  1  0  0  0  0
 22 24  2  0  0  0  0
 23 22  1  0  0  0  0
 24 14  1  0  0  0  0
 25 24  1  0  0  0  0
M  CHG  1   4  -1
M  END
