1,2
 OpenBabel05122313063D

 37 38  0  0  1  0  0  0  0  0999 V2000
    0.2067   -1.7629   -0.0457 O   0  0  0  0  0  1  0  0  0  0  0  0
    0.5190    0.1922   -1.8890 N   0  0  0  0  0  2  0  0  0  0  0  0
    1.4746   -1.7147    0.1275 N   0  0  0  0  0  0  0  0  0  0  0  0
    0.0579    0.8854   -2.9431 C   0  0  0  0  0  3  0  0  0  0  0  0
    0.7580    0.9808   -4.1524 C   0  0  0  0  0  0  0  0  0  0  0  0
    2.0020    0.3432   -4.2467 C   0  0  0  0  0  0  0  0  0  0  0  0
    2.4951   -0.3559   -3.1408 C   0  0  0  0  0  0  0  0  0  0  0  0
    1.7218   -0.4349   -1.9571 C   0  0  0  0  0  0  0  0  0  0  0  0
    2.2762   -1.1543   -0.7843 C   0  0  2  0  0  3  0  0  0  0  0  0
    3.7601   -1.2643   -0.7447 C   0  0  0  0  0  0  0  0  0  0  0  0
    4.5406   -0.1238   -0.4601 C   0  0  0  0  0  0  0  0  0  0  0  0
    5.9389   -0.2048   -0.4762 C   0  0  0  0  0  0  0  0  0  0  0  0
    6.5739   -1.4157   -0.8003 C   0  0  0  0  0  0  0  0  0  0  0  0
    5.8039   -2.5447   -1.1209 C   0  0  0  0  0  0  0  0  0  0  0  0
    4.4029   -2.4688   -1.1000 C   0  0  0  0  0  0  0  0  0  0  0  0
    1.9220   -2.3818    1.4667 C   0  0  0  0  0  0  0  0  0  0  0  0
    2.0291   -3.8856    1.1779 C   0  0  0  0  0  0  0  0  0  0  0  0
    3.2204   -1.8000    2.0378 C   0  0  0  0  0  0  0  0  0  0  0  0
    0.7891   -2.1125    2.4704 C   0  0  0  0  0  0  0  0  0  0  0  0
   -0.9113    1.3878   -2.7953 H   0  0  0  0  0  0  0  0  0  0  0  0
    0.3302    1.5439   -4.9936 H   0  0  0  0  0  0  0  0  0  0  0  0
    2.5905    0.3902   -5.1753 H   0  0  0  0  0  0  0  0  0  0  0  0
    3.4737   -0.8513   -3.1832 H   0  0  0  0  0  0  0  0  0  0  0  0
    4.0398    0.8166   -0.1898 H   0  0  0  0  0  0  0  0  0  0  0  0
    6.5387    0.6844   -0.2302 H   0  0  0  0  0  0  0  0  0  0  0  0
    7.6726   -1.4766   -0.8118 H   0  0  0  0  0  0  0  0  0  0  0  0
    6.2957   -3.4905   -1.3938 H   0  0  0  0  0  0  0  0  0  0  0  0
    3.7975   -3.3467   -1.3702 H   0  0  0  0  0  0  0  0  0  0  0  0
    2.1698   -4.4287    2.1330 H   0  0  0  0  0  0  0  0  0  0  0  0
    2.8885   -4.1210    0.5216 H   0  0  0  0  0  0  0  0  0  0  0  0
    1.0964   -4.2514    0.7061 H   0  0  0  0  0  0  0  0  0  0  0  0
    3.2987   -2.1474    3.0867 H   0  0  0  0  0  0  0  0  0  0  0  0
    3.1897   -0.6950    2.0560 H   0  0  0  0  0  0  0  0  0  0  0  0
    4.1314   -2.1318    1.5128 H   0  0  0  0  0  0  0  0  0  0  0  0
    1.0820   -2.5648    3.4376 H   0  0  0  0  0  0  0  0  0  0  0  0
   -0.1676   -2.5554    2.1522 H   0  0  0  0  0  0  0  0  0  0  0  0
    0.6428   -1.0266    2.6168 H   0  0  0  0  0  0  0  0  0  0  0  0
  1  3  1  0  0  0  0
  3 16  1  0  0  0  0
  4 20  1  0  0  0  0
  4  2  1  0  0  0  0
  5  4  1  0  0  0  0
  6  5  2  0  0  0  0
  6  7  1  0  0  0  0
  7  8  2  0  0  0  0
  8  2  1  0  0  0  0
  8  9  1  0  0  0  0
  9 10  1  0  0  0  0
  9  3  1  6  0  0  0
 10 11  1  0  0  0  0
 11 24  1  0  0  0  0
 12 11  2  0  0  0  0
 12 25  1  0  0  0  0
 13 12  1  0  0  0  0
 14 15  1  0  0  0  0
 14 13  2  0  0  0  0
 15 10  2  0  0  0  0
 16 18  1  0  0  0  0
 16 19  1  0  0  0  0
 17 16  1  0  0  0  0
 17 29  1  0  0  0  0
 18 33  1  0  0  0  0
 18 32  1  0  0  0  0
 19 37  1  0  0  0  0
 19 35  1  0  0  0  0
 21  5  1  0  0  0  0
 22  6  1  0  0  0  0
 23  7  1  0  0  0  0
 26 13  1  0  0  0  0
 27 14  1  0  0  0  0
 28 15  1  0  0  0  0
 30 17  1  0  0  0  0
 31 17  1  0  0  0  0
 34 18  1  0  0  0  0
 36 19  1  0  0  0  0
M  END
