1,3
 OpenBabel05122313063D

 29 31  0  0  1  0  0  0  0  0999 V2000
   -0.7550    1.6508   -0.2322 N   0  0  0  0  0  2  0  0  0  0  0  0
    1.9620    1.0636    1.1565 N   0  0  0  0  0  0  0  0  0  0  0  0
    0.8049   -0.9364    0.8595 O   0  0  0  0  0  1  0  0  0  0  0  0
   -1.3371    2.1448   -1.3530 C   0  0  0  0  0  3  0  0  0  0  0  0
   -1.9477    1.4349   -1.9278 H   0  0  0  0  0  0  0  0  0  0  0  0
   -1.1687    3.4664   -1.7796 C   0  0  0  0  0  0  0  0  0  0  0  0
   -1.6814    3.8066   -2.6901 H   0  0  0  0  0  0  0  0  0  0  0  0
   -0.3500    4.3219   -1.0339 C   0  0  0  0  0  0  0  0  0  0  0  0
   -0.2004    5.3698   -1.3340 H   0  0  0  0  0  0  0  0  0  0  0  0
    0.2858    3.8044    0.1021 C   0  0  0  0  0  0  0  0  0  0  0  0
    0.9541    4.4307    0.7113 H   0  0  0  0  0  0  0  0  0  0  0  0
    0.0712    2.4675    0.4742 C   0  0  0  0  0  0  0  0  0  0  0  0
    0.8425    1.8622    1.6282 C   0  0  0  0  0  0  0  0  0  0  0  0
    1.2338    2.6605    2.2876 H   0  0  0  0  0  0  0  0  0  0  0  0
    0.1818    1.2103    2.2311 H   0  0  0  0  0  0  0  0  0  0  0  0
    1.8463   -0.2560    0.8012 C   0  0  1  0  0  3  0  0  0  0  0  0
    3.1764   -0.6968    0.3419 C   0  0  0  0  0  0  0  0  0  0  0  0
    4.0519    0.4044    0.3917 C   0  0  0  0  0  0  0  0  0  0  0  0
    3.2930    1.6048    0.9013 C   0  0  0  0  0  0  0  0  0  0  0  0
    3.7314    2.0306    1.8320 H   0  0  0  0  0  0  0  0  0  0  0  0
    3.2529    2.4225    0.1455 H   0  0  0  0  0  0  0  0  0  0  0  0
    3.5803   -1.9506   -0.1332 C   0  0  0  0  0  0  0  0  0  0  0  0
    2.8594   -2.7791   -0.1868 H   0  0  0  0  0  0  0  0  0  0  0  0
    4.9140   -2.0873   -0.5443 C   0  0  0  0  0  0  0  0  0  0  0  0
    5.2734   -3.0549   -0.9245 H   0  0  0  0  0  0  0  0  0  0  0  0
    5.8010   -0.9925   -0.4849 C   0  0  0  0  0  0  0  0  0  0  0  0
    6.8422   -1.1243   -0.8159 H   0  0  0  0  0  0  0  0  0  0  0  0
    5.3806    0.2677   -0.0216 C   0  0  0  0  0  0  0  0  0  0  0  0
    6.0814    1.1159    0.0061 H   0  0  0  0  0  0  0  0  0  0  0  0
  1 12  1  0  0  0  0
  2 13  1  0  0  0  0
  4  1  1  0  0  0  0
  5  4  1  0  0  0  0
  6  4  1  0  0  0  0
  6  8  2  0  0  0  0
  7  6  1  0  0  0  0
  8 10  1  0  0  0  0
  9  8  1  0  0  0  0
 10 12  2  0  0  0  0
 10 11  1  0  0  0  0
 12 13  1  0  0  0  0
 13 15  1  0  0  0  0
 13 14  1  0  0  0  0
 16  3  1  6  0  0  0
 16  2  1  0  0  0  0
 17 18  1  0  0  0  0
 17 16  1  0  0  0  0
 18 19  1  0  0  0  0
 19  2  1  0  0  0  0
 19 20  1  0  0  0  0
 21 19  1  0  0  0  0
 22 17  2  0  0  0  0
 23 22  1  0  0  0  0
 24 26  2  0  0  0  0
 24 22  1  0  0  0  0
 25 24  1  0  0  0  0
 26 28  1  0  0  0  0
 27 26  1  0  0  0  0
 28 29  1  0  0  0  0
 28 18  2  0  0  0  0
M  END
