2,19
 OpenBabel05122313063D

 20 21  0  0  1  0  0  0  0  0999 V2000
   -3.2829   -2.5661   -0.0540 O   0  0  0  0  0  0  0  0  0  0  0  0
   -1.3097   -1.5053   -0.0212 N   0  0  0  0  0  2  0  0  0  0  0  0
   -0.9539   -2.9228   -0.1465 C   0  0  0  0  0  0  0  0  0  0  0  0
   -2.2981   -3.6148    0.1270 C   0  0  0  0  0  0  0  0  0  0  0  0
   -2.6170   -1.3845   -0.0222 C   0  0  0  0  0  0  0  0  0  0  0  0
   -3.3919   -0.1665   -0.0056 C   0  0  0  0  0  0  0  0  0  0  0  0
   -4.8111   -0.2650    0.0216 C   0  0  0  0  0  0  0  0  0  0  0  0
   -5.6183    0.8654    0.0240 C   0  0  0  0  0  0  0  0  0  0  0  0
   -5.0072    2.1416    0.0003 C   0  0  0  0  0  0  0  0  0  0  0  0
   -3.6245    2.2706   -0.0230 C   0  0  0  0  0  0  0  0  0  0  0  0
   -0.1532   -3.1893    0.5679 H   0  0  0  0  0  0  0  0  0  0  0  0
   -0.5586   -3.1180   -1.1668 H   0  0  0  0  0  0  0  0  0  0  0  0
   -2.5391   -4.4384   -0.5712 H   0  0  0  0  0  0  0  0  0  0  0  0
   -2.3831   -3.9873    1.1706 H   0  0  0  0  0  0  0  0  0  0  0  0
   -5.2559   -1.2699    0.0394 H   0  0  0  0  0  0  0  0  0  0  0  0
   -6.7132    0.7688    0.0446 H   0  0  0  0  0  0  0  0  0  0  0  0
   -5.6323    3.0485    0.0020 H   0  0  0  0  0  0  0  0  0  0  0  0
   -3.1419    3.2586   -0.0386 H   0  0  0  0  0  0  0  0  0  0  0  0
   -1.4714    1.3632   -0.0430 O   0  0  0  0  0  1  0  0  0  0  0  0
   -2.7593    1.1304   -0.0248 C   0  0  1  0  0  3  0  0  0  0  0  0
  1  5  1  0  0  0  0
  1  4  1  0  0  0  0
  3  2  1  0  0  0  0
  3  4  1  0  0  0  0
  3 11  1  0  0  0  0
  4 14  1  0  0  0  0
  5  2  1  0  0  0  0
  5  6  2  0  0  0  0
  6  7  1  0  0  0  0
  7  8  2  0  0  0  0
  7 15  1  0  0  0  0
  8 16  1  0  0  0  0
  9 17  1  0  0  0  0
  9  8  1  0  0  0  0
 10  9  2  0  0  0  0
 12  3  1  0  0  0  0
 13  4  1  0  0  0  0
 18 10  1  0  0  0  0
 20 19  1  1  0  0  0
 20 10  1  0  0  0  0
 20  6  1  0  0  0  0
M  END
