1,5
 OpenBabel05122313063D

 12 11  0  0  1  0  0  0  0  0999 V2000
   -1.6746   -1.9372    0.1224 O   0  0  0  0  0  1  0  0  0  0  0  0
   -1.9565    1.9496   -0.3113 O   0  0  0  0  0  1  0  0  0  0  0  0
   -4.4282    1.9304    0.7033 O   0  0  0  0  0  0  0  0  0  0  0  0
   -3.5615    2.3337    0.4274 H   0  0  0  0  0  0  0  0  0  0  0  0
   -2.0325    0.6671   -0.1689 N   0  0  0  0  0  2  0  0  0  0  0  0
   -3.0064   -1.4903    0.1701 C   0  0  0  0  0  0  0  0  0  0  0  0
   -3.4832   -1.7520    1.1549 H   0  0  0  0  0  0  0  0  0  0  0  0
   -3.6273   -2.0231   -0.6013 H   0  0  0  0  0  0  0  0  0  0  0  0
   -3.1593   -0.0080   -0.0286 C   0  0  1  0  0  3  0  0  0  0  0  0
   -4.4659    0.7451   -0.0564 C   0  0  0  0  0  0  0  0  0  0  0  0
   -4.7367    0.9368   -1.1326 H   0  0  0  0  0  0  0  0  0  0  0  0
   -5.2698    0.0909    0.3474 H   0  0  0  0  0  0  0  0  0  0  0  0
  1  6  1  0  0  0  0
  2  5  1  0  0  0  0
  4  3  1  0  0  0  0
  6  7  1  0  0  0  0
  8  6  1  0  0  0  0
  9  5  1  1  0  0  0
  9  6  1  0  0  0  0
 10  9  1  0  0  0  0
 10 12  1  0  0  0  0
 10  3  1  0  0  0  0
 11 10  1  0  0  0  0
M  END
