1,5
 OpenBabel05122313063D

 13 13  0  0  1  0  0  0  0  0999 V2000
    0.9502    0.1915   -0.0082 N   0  0  0  0  0  2  0  0  0  0  0  0
    2.9189    1.2905    0.0321 N   0  0  0  0  0  0  0  0  0  0  0  0
    3.0941   -0.0406    0.0128 N   0  0  0  0  0  0  0  0  0  0  0  0
    4.0167   -0.4904    0.0160 H   0  0  0  0  0  0  0  0  0  0  0  0
   -0.5763    2.2007   -0.0027 O   0  5  0  0  0  0  0  0  0  0  0  0
    1.0555    3.7737    0.0246 O   0  0  0  0  0  0  0  0  0  0  0  0
    0.8099   -2.8722   -0.1080 O   0  0  0  0  0  0  0  0  0  0  0  0
    3.0628   -2.7600   -0.0279 O   0  0  0  0  0  0  0  0  0  0  0  0
   -0.0767   -2.2507   -0.1167 H   0  0  0  0  0  0  0  0  0  0  0  0
    1.5954    1.4114    0.0187 C   0  0  0  0  0  0  0  0  0  0  0  0
    1.9260   -0.7326   -0.0134 C   0  0  2  0  0  3  0  0  0  0  0  0
    0.6859    2.6148    0.0155 C   0  0  0  0  0  0  0  0  0  0  0  0
    1.9510   -2.2425   -0.0498 C   0  0  0  0  0  0  0  0  0  0  0  0
  1 10  1  0  0  0  0
  3  4  1  0  0  0  0
  3  2  1  0  0  0  0
  5 12  1  0  0  0  0
  7 13  1  0  0  0  0
  9  7  1  0  0  0  0
 10  2  2  0  0  0  0
 11 13  1  6  0  0  0
 11  1  1  0  0  0  0
 11  3  1  0  0  0  0
 12 10  1  0  0  0  0
 12  6  2  0  0  0  0
 13  8  2  0  0  0  0
M  CHG  1   5  -1
M  END
