1,4
 OpenBabel05122313063D

 14 14  0  0  1  0  0  0  0  0999 V2000
   -0.2272    0.6620    1.7343 O   0  5  0  0  0  0  0  0  0  0  0  0
   -1.8233    0.9675    3.3030 O   0  0  0  0  0  0  0  0  0  0  0  0
   -2.4422   -0.5668   -2.3615 O   0  0  0  0  0  0  0  0  0  0  0  0
   -1.9886   -0.0035   -0.1423 N   0  0  0  0  0  2  0  0  0  0  0  0
   -2.4869    0.3054    1.0986 C   0  0  2  0  0  3  0  0  0  0  0  0
   -3.8501    0.3242    1.3885 C   0  0  0  0  0  0  0  0  0  0  0  0
   -4.7625    0.0252    0.3625 C   0  0  0  0  0  0  0  0  0  0  0  0
   -4.2710   -0.2752   -0.9076 C   0  0  0  0  0  0  0  0  0  0  0  0
   -2.8747   -0.2835   -1.1401 C   0  0  0  0  0  0  0  0  0  0  0  0
   -1.4721    0.6726    2.1611 C   0  0  0  0  0  0  0  0  0  0  0  0
   -4.1441    0.5830    2.4148 H   0  0  0  0  0  0  0  0  0  0  0  0
   -5.8467    0.0285    0.5507 H   0  0  0  0  0  0  0  0  0  0  0  0
   -4.9281   -0.5136   -1.7551 H   0  0  0  0  0  0  0  0  0  0  0  0
   -1.4291   -0.6212   -2.3951 H   0  0  0  0  0  0  0  0  0  0  0  0
  1 10  1  0  0  0  0
  3  9  1  0  0  0  0
  4  5  1  0  0  0  0
  5  6  1  0  0  0  0
  5 10  1  6  0  0  0
  6 11  1  0  0  0  0
  7 12  1  0  0  0  0
  7  6  2  0  0  0  0
  8  7  1  0  0  0  0
  9  8  2  0  0  0  0
  9  4  1  0  0  0  0
 10  2  2  0  0  0  0
 13  8  1  0  0  0  0
 14  3  1  0  0  0  0
M  CHG  1   1  -1
M  END
