2,3
 OpenBabel05122313063D

 36 36  0  0  0  0  0  0  0  0999 V2000
    6.3325    1.7569    0.0340 Cl  0  0  0  0  0  0  0  0  0  0  0  0
    1.5721   -1.7536    0.1183 O   0  5  0  0  0  0  0  0  0  0  0  0
    0.0402    0.6679   -0.4401 N   0  0  0  0  0  2  0  0  0  0  0  0
   -3.5616    1.5503   -0.2404 N   0  3  0  0  0  0  0  0  0  0  0  0
    2.4674    0.5061   -0.1716 C   0  0  0  0  0  0  0  0  0  0  0  0
    2.5618   -0.9278    0.0910 C   0  0  0  0  0  0  0  0  0  0  0  0
    3.8872   -1.4400    0.3196 C   0  0  0  0  0  0  0  0  0  0  0  0
    3.9646   -2.5196    0.5140 H   0  0  0  0  0  0  0  0  0  0  0  0
    5.0148   -0.6360    0.3081 C   0  0  0  0  0  0  0  0  0  0  0  0
    6.0109   -1.0641    0.4944 H   0  0  0  0  0  0  0  0  0  0  0  0
    4.8964    0.7545    0.0514 C   0  0  0  0  0  0  0  0  0  0  0  0
    3.6489    1.3060   -0.1889 C   0  0  0  0  0  0  0  0  0  0  0  0
    3.5625    2.3838   -0.3966 H   0  0  0  0  0  0  0  0  0  0  0  0
    1.2377    1.1854   -0.4680 C   0  0  0  0  0  3  0  0  0  0  0  0
    1.3409    2.2566   -0.7638 H   0  0  0  0  0  0  0  0  0  0  0  0
   -1.1069    1.4271   -0.8711 C   0  0  0  0  0  0  0  0  0  0  0  0
   -1.5399    0.8767   -1.7395 H   0  0  0  0  0  0  0  0  0  0  0  0
   -0.8310    2.4554   -1.2111 H   0  0  0  0  0  0  0  0  0  0  0  0
   -2.1384    1.4822    0.2665 C   0  0  0  0  0  0  0  0  0  0  0  0
   -2.0484    0.5788    0.9175 H   0  0  0  0  0  0  0  0  0  0  0  0
   -1.9808    2.3713    0.9070 H   0  0  0  0  0  0  0  0  0  0  0  0
   -4.0621    0.2209   -0.8152 C   0  0  0  0  0  0  0  0  0  0  0  0
   -3.2376   -0.1870   -1.4425 H   0  0  0  0  0  0  0  0  0  0  0  0
   -4.9165    0.4857   -1.4692 H   0  0  0  0  0  0  0  0  0  0  0  0
   -4.4190   -0.8196    0.2255 C   0  0  0  0  0  0  0  0  0  0  0  0
   -3.5598   -1.0526    0.8932 H   0  0  0  0  0  0  0  0  0  0  0  0
   -4.6271   -1.7572   -0.3258 H   0  0  0  0  0  0  0  0  0  0  0  0
   -5.3157   -0.5658    0.8258 H   0  0  0  0  0  0  0  0  0  0  0  0
   -4.4763    2.1354    0.8071 C   0  0  0  0  0  0  0  0  0  0  0  0
   -4.0088    3.0893    1.1214 H   0  0  0  0  0  0  0  0  0  0  0  0
   -4.4330    1.4453    1.6712 H   0  0  0  0  0  0  0  0  0  0  0  0
   -5.8955    2.3589    0.3149 C   0  0  0  0  0  0  0  0  0  0  0  0
   -5.9242    2.9999   -0.5907 H   0  0  0  0  0  0  0  0  0  0  0  0
   -6.4683    2.8821    1.1047 H   0  0  0  0  0  0  0  0  0  0  0  0
   -6.4228    1.4117    0.0941 H   0  0  0  0  0  0  0  0  0  0  0  0
   -3.5667    2.2109   -1.0380 H   0  0  0  0  0  0  0  0  0  0  0  0
  1 11  1  0  0  0  0
  4 19  1  0  0  0  0
  4 29  1  0  0  0  0
  5  6  1  0  0  0  0
  6  2  1  0  0  0  0
  6  7  2  0  0  0  0
  7  8  1  0  0  0  0
  9  7  1  0  0  0  0
  9 10  1  0  0  0  0
 11  9  2  0  0  0  0
 12  5  2  0  0  0  0
 12 11  1  0  0  0  0
 13 12  1  0  0  0  0
 14  3  1  0  0  0  0
 14  5  1  0  0  0  0
 15 14  1  0  0  0  0
 16  3  1  0  0  0  0
 16 19  1  0  0  0  0
 17 16  1  0  0  0  0
 18 16  1  0  0  0  0
 19 21  1  0  0  0  0
 19 20  1  0  0  0  0
 22  4  1  0  0  0  0
 22 25  1  0  0  0  0
 23 22  1  0  0  0  0
 24 22  1  0  0  0  0
 25 28  1  0  0  0  0
 25 26  1  0  0  0  0
 27 25  1  0  0  0  0
 29 30  1  0  0  0  0
 29 31  1  0  0  0  0
 32 29  1  0  0  0  0
 32 34  1  0  0  0  0
 33 32  1  0  0  0  0
 35 32  1  0  0  0  0
 36  4  1  0  0  0  0
M  CHG  2   2  -1   4   1
M  END
