1,2
 OpenBabel05122313063D

 16 16  0  0  0  0  0  0  0  0999 V2000
    1.2294    0.4852   -1.5272 O   0  5  0  0  0  0  0  0  0  0  0  0
    1.1851    0.2297    1.0051 N   0  0  0  0  0  2  0  0  0  0  0  0
    1.1314    0.4040    2.0193 H   0  0  0  0  0  0  0  0  0  0  0  0
    2.4029    0.3667   -0.9723 C   0  0  0  0  0  0  0  0  0  0  0  0
    3.6364    0.4519   -1.6712 C   0  0  0  0  0  0  0  0  0  0  0  0
    3.6204    0.5528   -2.7652 H   0  0  0  0  0  0  0  0  0  0  0  0
    4.8240    0.3758   -0.9565 C   0  0  0  0  0  0  0  0  0  0  0  0
    5.7801    0.4163   -1.5028 H   0  0  0  0  0  0  0  0  0  0  0  0
    4.8641    0.2451    0.4713 C   0  0  0  0  0  0  0  0  0  0  0  0
    6.1950    0.1671    1.1728 C   0  0  0  0  0  0  0  0  0  0  0  0
    6.8217    1.0566    0.9503 H   0  0  0  0  0  0  0  0  0  0  0  0
    6.7744   -0.7203    0.8401 H   0  0  0  0  0  0  0  0  0  0  0  0
    6.0757    0.1014    2.2713 H   0  0  0  0  0  0  0  0  0  0  0  0
    3.6644    0.1932    1.1737 C   0  0  0  0  0  0  0  0  0  0  0  0
    3.6552    0.1028    2.2708 H   0  0  0  0  0  0  0  0  0  0  0  0
    2.4292    0.2327    0.4719 C   0  0  0  0  0  0  0  0  0  0  0  0
  1  4  1  0  0  0  0
  2  3  1  0  0  0  0
  4 16  1  0  0  0  0
  5  4  2  0  0  0  0
  5  7  1  0  0  0  0
  6  5  1  0  0  0  0
  7  9  2  0  0  0  0
  8  7  1  0  0  0  0
  9 10  1  0  0  0  0
  9 14  1  0  0  0  0
 10 13  1  0  0  0  0
 11 10  1  0  0  0  0
 12 10  1  0  0  0  0
 14 15  1  0  0  0  0
 16  2  1  0  0  0  0
 16 14  2  0  0  0  0
M  CHG  1   1  -1
M  END
