2,3
 OpenBabel05122313063D

 42 45  0  0  1  0  0  0  0  0999 V2000
    6.3271    1.7544   -1.3311 O   0  0  0  0  0  0  0  0  0  0  0  0
   -1.6915    0.6987   -0.2405 O   0  5  0  0  0  0  0  0  0  0  0  0
    0.8089    1.6975   -0.3042 N   0  0  0  0  0  2  0  0  0  0  0  0
    0.1766    2.8577   -0.2299 C   0  0  0  0  0  0  0  0  0  0  0  0
    0.8064    3.7543   -0.3685 H   0  0  0  0  0  0  0  0  0  0  0  0
    2.2137    1.7451   -0.5535 C   0  0  0  0  0  0  0  0  0  0  0  0
    2.7380    1.1265   -1.7043 C   0  0  0  0  0  0  0  0  0  0  0  0
    2.0499    0.6261   -2.4003 H   0  0  0  0  0  0  0  0  0  0  0  0
    4.1144    1.1270   -1.9430 C   0  0  0  0  0  0  0  0  0  0  0  0
    4.5408    0.6436   -2.8332 H   0  0  0  0  0  0  0  0  0  0  0  0
    4.9832    1.7449   -1.0254 C   0  0  0  0  0  0  0  0  0  0  0  0
    4.4700    2.3789    0.1199 C   0  0  0  0  0  0  0  0  0  0  0  0
    5.1544    2.8625    0.8316 H   0  0  0  0  0  0  0  0  0  0  0  0
    3.0888    2.3702    0.3539 C   0  0  0  0  0  0  0  0  0  0  0  0
    2.6802    2.8311    1.2654 H   0  0  0  0  0  0  0  0  0  0  0  0
    7.2678    1.4516   -0.3716 C   0  0  0  0  0  0  0  0  0  0  0  0
    7.0128    0.5818    0.7061 C   0  0  0  0  0  0  0  0  0  0  0  0
    6.0129    0.1442    0.8372 H   0  0  0  0  0  0  0  0  0  0  0  0
    8.0474    0.2791    1.6038 C   0  0  0  0  0  0  0  0  0  0  0  0
    7.8452   -0.4030    2.4438 H   0  0  0  0  0  0  0  0  0  0  0  0
    9.3282    0.8289    1.4356 C   0  0  0  0  0  0  0  0  0  0  0  0
   10.1334    0.5863    2.1445 H   0  0  0  0  0  0  0  0  0  0  0  0
    9.5723    1.6894    0.3523 C   0  0  0  0  0  0  0  0  0  0  0  0
   10.5724    2.1259    0.2083 H   0  0  0  0  0  0  0  0  0  0  0  0
    8.5481    2.0059   -0.5500 C   0  0  0  0  0  0  0  0  0  0  0  0
    8.7164    2.6778   -1.4038 H   0  0  0  0  0  0  0  0  0  0  0  0
   -1.2223    3.0598   -0.0602 C   0  0  0  0  0  0  0  0  0  0  0  0
   -2.0959    1.9268   -0.1321 C   0  0  0  0  0  0  0  0  0  0  0  0
   -3.5207    2.1398   -0.1117 C   0  0  0  0  0  0  0  0  0  0  0  0
   -4.1553    1.2444   -0.1778 H   0  0  0  0  0  0  0  0  0  0  0  0
   -4.0447    3.4036    0.0084 C   0  0  0  0  0  0  0  0  0  0  0  0
   -5.1372    3.5448    0.0346 H   0  0  0  0  0  0  0  0  0  0  0  0
   -3.2061    4.5632    0.1155 C   0  0  0  0  0  0  0  0  0  0  0  0
   -1.7766    4.3976    0.0872 C   0  0  1  0  0  3  0  0  0  0  0  0
   -0.9797    5.5687    0.2182 C   0  0  0  0  0  0  0  0  0  0  0  0
    0.1168    5.4908    0.2300 H   0  0  0  0  0  0  0  0  0  0  0  0
   -1.5549    6.8300    0.3509 C   0  0  0  0  0  0  0  0  0  0  0  0
   -0.9047    7.7127    0.4496 H   0  0  0  0  0  0  0  0  0  0  0  0
   -2.9601    6.9857    0.3679 C   0  0  0  0  0  0  0  0  0  0  0  0
   -3.4063    7.9854    0.4754 H   0  0  0  0  0  0  0  0  0  0  0  0
   -3.7680    5.8602    0.2550 C   0  0  0  0  0  0  0  0  0  0  0  0
   -4.8651    5.9560    0.2736 H   0  0  0  0  0  0  0  0  0  0  0  0
  1 11  1  0  0  0  0
  1 16  1  0  0  0  0
  2 28  1  0  0  0  0
  3  4  1  0  0  0  0
  4 27  2  0  0  0  0
  5  4  1  0  0  0  0
  6  3  1  0  0  0  0
  6 14  1  0  0  0  0
  7  6  2  0  0  0  0
  8  7  1  0  0  0  0
  9  7  1  0  0  0  0
  9 11  2  0  0  0  0
 10  9  1  0  0  0  0
 11 12  1  0  0  0  0
 12 14  2  0  0  0  0
 12 13  1  0  0  0  0
 14 15  1  0  0  0  0
 16 17  1  0  0  0  0
 17 18  1  0  0  0  0
 17 19  2  0  0  0  0
 19 20  1  0  0  0  0
 21 19  1  0  0  0  0
 21 22  1  0  0  0  0
 23 21  2  0  0  0  0
 24 23  1  0  0  0  0
 25 16  2  0  0  0  0
 25 23  1  0  0  0  0
 26 25  1  0  0  0  0
 28 29  2  0  0  0  0
 28 27  1  0  0  0  0
 29 31  1  0  0  0  0
 30 29  1  0  0  0  0
 31 32  1  0  0  0  0
 31 33  2  0  0  0  0
 33 41  1  0  0  0  0
 34 27  1  1  0  0  0
 34 33  1  0  0  0  0
 34 35  1  0  0  0  0
 35 36  1  0  0  0  0
 35 37  2  0  0  0  0
 37 39  1  0  0  0  0
 37 38  1  0  0  0  0
 39 40  1  0  0  0  0
 41 42  1  0  0  0  0
 41 39  2  0  0  0  0
M  CHG  1   2  -1
M  END
