1,5
 OpenBabel05122313063D

 37 39  0  0  0  0  0  0  0  0999 V2000
    0.3489   -1.7551    0.0811 O   0  5  0  0  0  0  0  0  0  0  0  0
   -4.9691   -0.7697    0.4665 O   0  0  0  0  0  0  0  0  0  0  0  0
   -1.7253    1.8089   -2.1054 O   0  0  0  0  0  0  0  0  0  0  0  0
    0.2424    2.4118    2.1100 O   0  0  0  0  0  0  0  0  0  0  0  0
   -0.4141    0.7926    0.0453 N   0  0  0  0  0  2  0  0  0  0  0  0
   -0.8908   -1.5417    0.1588 C   0  0  0  0  0  0  0  0  0  0  0  0
   -1.8379   -2.6609    0.2645 C   0  0  0  0  0  0  0  0  0  0  0  0
   -1.3758   -3.9940    0.2694 C   0  0  0  0  0  0  0  0  0  0  0  0
   -0.2938   -4.1769    0.1968 H   0  0  0  0  0  0  0  0  0  0  0  0
   -2.2893   -5.0494    0.3691 C   0  0  0  0  0  0  0  0  0  0  0  0
   -1.9307   -6.0898    0.3730 H   0  0  0  0  0  0  0  0  0  0  0  0
   -3.6674   -4.7773    0.4664 C   0  0  0  0  0  0  0  0  0  0  0  0
   -4.3845   -5.6092    0.5455 H   0  0  0  0  0  0  0  0  0  0  0  0
   -4.1300   -3.4532    0.4653 C   0  0  0  0  0  0  0  0  0  0  0  0
   -5.1977   -3.1980    0.5429 H   0  0  0  0  0  0  0  0  0  0  0  0
   -3.2243   -2.3874    0.3645 C   0  0  0  0  0  0  0  0  0  0  0  0
   -3.7427   -0.9689    0.3729 C   0  0  0  0  0  0  0  0  0  0  0  0
   -2.7685    0.0855    0.2698 C   0  0  0  0  0  3  0  0  0  0  0  0
   -3.1593    1.1116    0.2834 H   0  0  0  0  0  0  0  0  0  0  0  0
   -1.3931   -0.1446    0.1476 C   0  0  0  0  0  0  0  0  0  0  0  0
   -0.7684    2.1524    0.0076 C   0  0  0  0  0  0  0  0  0  0  0  0
   -0.4035    3.0137    1.0750 C   0  0  0  0  0  0  0  0  0  0  0  0
   -0.7130    4.3883    1.0223 C   0  0  0  0  0  0  0  0  0  0  0  0
   -0.4382    5.0584    1.8464 H   0  0  0  0  0  0  0  0  0  0  0  0
   -1.3943    4.8960   -0.0923 C   0  0  0  0  0  0  0  0  0  0  0  0
   -1.6436    5.9672   -0.1282 H   0  0  0  0  0  0  0  0  0  0  0  0
   -1.7654    4.0699   -1.1621 C   0  0  0  0  0  0  0  0  0  0  0  0
   -2.2928    4.4948   -2.0254 H   0  0  0  0  0  0  0  0  0  0  0  0
   -1.4427    2.6984   -1.1172 C   0  0  0  0  0  0  0  0  0  0  0  0
   -2.4938    2.2466   -3.2084 C   0  0  0  0  0  0  0  0  0  0  0  0
   -3.4878    2.6326   -2.8902 H   0  0  0  0  0  0  0  0  0  0  0  0
   -2.6418    1.3619   -3.8547 H   0  0  0  0  0  0  0  0  0  0  0  0
   -1.9713    3.0377   -3.7922 H   0  0  0  0  0  0  0  0  0  0  0  0
    0.6679    3.2142    3.1922 C   0  0  0  0  0  0  0  0  0  0  0  0
   -0.1878    3.7052    3.7081 H   0  0  0  0  0  0  0  0  0  0  0  0
    1.3872    4.0002    2.8682 H   0  0  0  0  0  0  0  0  0  0  0  0
    1.1733    2.5347    3.9035 H   0  0  0  0  0  0  0  0  0  0  0  0
  1  6  1  0  0  0  0
  3 29  1  0  0  0  0
  4 34  1  0  0  0  0
  5 20  1  0  0  0  0
  6  7  1  0  0  0  0
  7  8  2  0  0  0  0
  7 16  1  0  0  0  0
  8 10  1  0  0  0  0
  9  8  1  0  0  0  0
 10 11  1  0  0  0  0
 10 12  2  0  0  0  0
 12 13  1  0  0  0  0
 14 12  1  0  0  0  0
 14 15  1  0  0  0  0
 16 17  1  0  0  0  0
 16 14  2  0  0  0  0
 17  2  2  0  0  0  0
 18 19  1  0  0  0  0
 18 17  1  0  0  0  0
 20  6  2  0  0  0  0
 20 18  1  0  0  0  0
 21  5  1  0  0  0  0
 21 22  1  0  0  0  0
 22  4  1  0  0  0  0
 23 22  2  0  0  0  0
 23 24  1  0  0  0  0
 25 23  1  0  0  0  0
 26 25  1  0  0  0  0
 27 29  1  0  0  0  0
 27 25  2  0  0  0  0
 28 27  1  0  0  0  0
 29 21  2  0  0  0  0
 30 31  1  0  0  0  0
 30  3  1  0  0  0  0
 32 30  1  0  0  0  0
 33 30  1  0  0  0  0
 34 35  1  0  0  0  0
 34 37  1  0  0  0  0
 36 34  1  0  0  0  0
M  CHG  1   1  -1
M  END
