1,2
 OpenBabel05122313063D

 29 28  0  0  1  0  0  0  0  0999 V2000
   -1.4904    2.5656    0.7659 O   0  5  0  0  0  0  0  0  0  0  0  0
   -2.0805    0.0226   -0.6208 N   0  0  0  0  0  2  0  0  0  0  0  0
   -1.0776   -3.5672   -1.1978 N   0  0  0  0  0  0  0  0  0  0  0  0
   -2.2977    0.8558   -1.6320 C   0  0  2  0  0  3  0  0  0  0  0  0
   -2.1215    2.2711   -1.5367 C   0  0  0  0  0  0  0  0  0  0  0  0
   -2.3399    2.8428   -2.4489 H   0  0  0  0  0  0  0  0  0  0  0  0
   -1.7852    3.0273   -0.3913 C   0  0  0  0  0  0  0  0  0  0  0  0
   -2.7744    0.3333   -2.9781 C   0  0  0  0  0  0  0  0  0  0  0  0
   -2.1002   -0.4522   -3.3765 H   0  0  0  0  0  0  0  0  0  0  0  0
   -2.8306    1.1504   -3.7194 H   0  0  0  0  0  0  0  0  0  0  0  0
   -3.7834   -0.1219   -2.8968 H   0  0  0  0  0  0  0  0  0  0  0  0
   -1.7645    4.5418   -0.5042 C   0  0  0  0  0  0  0  0  0  0  0  0
   -2.5151    4.9676    0.1936 H   0  0  0  0  0  0  0  0  0  0  0  0
   -1.9732    4.9096   -1.5263 H   0  0  0  0  0  0  0  0  0  0  0  0
   -0.7769    4.9208   -0.1699 H   0  0  0  0  0  0  0  0  0  0  0  0
   -2.2808   -1.4099   -0.7684 C   0  0  0  0  0  0  0  0  0  0  0  0
   -2.7844   -1.7762    0.1516 H   0  0  0  0  0  0  0  0  0  0  0  0
   -2.9355   -1.6853   -1.6217 H   0  0  0  0  0  0  0  0  0  0  0  0
   -0.9380   -2.1400   -0.9457 C   0  0  0  0  0  0  0  0  0  0  0  0
   -0.4189   -1.6861   -1.8171 H   0  0  0  0  0  0  0  0  0  0  0  0
   -0.2877   -1.9256   -0.0546 H   0  0  0  0  0  0  0  0  0  0  0  0
   -1.5598   -4.3071   -0.0445 C   0  0  0  0  0  0  0  0  0  0  0  0
   -0.8566   -4.2677    0.8314 H   0  0  0  0  0  0  0  0  0  0  0  0
   -1.7068   -5.3726   -0.3152 H   0  0  0  0  0  0  0  0  0  0  0  0
   -2.5362   -3.9131    0.2982 H   0  0  0  0  0  0  0  0  0  0  0  0
    0.1448   -4.1435   -1.7223 C   0  0  0  0  0  0  0  0  0  0  0  0
    1.0089   -4.0943   -1.0030 H   0  0  0  0  0  0  0  0  0  0  0  0
    0.4510   -3.6155   -2.6488 H   0  0  0  0  0  0  0  0  0  0  0  0
   -0.0154   -5.2120   -1.9758 H   0  0  0  0  0  0  0  0  0  0  0  0
  3 19  1  0  0  0  0
  3 22  1  0  0  0  0
  4  5  1  1  0  0  0
  4  2  1  0  0  0  0
  5  7  2  0  0  0  0
  6  5  1  0  0  0  0
  7  1  1  0  0  0  0
  8 11  1  0  0  0  0
  8  4  1  0  0  0  0
  9  8  1  0  0  0  0
 10  8  1  0  0  0  0
 12  7  1  0  0  0  0
 12 15  1  0  0  0  0
 12 13  1  0  0  0  0
 14 12  1  0  0  0  0
 16  2  1  0  0  0  0
 16 17  1  0  0  0  0
 18 16  1  0  0  0  0
 19 16  1  0  0  0  0
 19 21  1  0  0  0  0
 20 19  1  0  0  0  0
 22 25  1  0  0  0  0
 22 23  1  0  0  0  0
 24 22  1  0  0  0  0
 26  3  1  0  0  0  0
 26 27  1  0  0  0  0
 28 26  1  0  0  0  0
 29 26  1  0  0  0  0
M  CHG  1   1  -1
M  END
