1,4
 OpenBabel05122313063D

 13 13  0  0  1  0  0  0  0  0999 V2000
    1.3271   -1.5543    1.2570 O   0  0  0  0  0  1  0  0  0  0  0  0
    3.4837   -1.9927    1.7692 O   0  0  0  0  0  0  0  0  0  0  0  0
    3.0468   -2.6464    2.3604 H   0  0  0  0  0  0  0  0  0  0  0  0
    2.1460    0.3967   -0.5425 N   0  0  0  0  0  2  0  0  0  0  0  0
    4.3896   -0.1120    0.1134 N   0  0  0  0  0  0  0  0  0  0  0  0
    2.5268   -1.3430    1.1202 C   0  0  2  0  0  3  0  0  0  0  0  0
    2.6063    1.3476   -1.3825 C   0  0  0  0  0  3  0  0  0  0  0  0
    1.8573    1.9071   -1.9636 H   0  0  0  0  0  0  0  0  0  0  0  0
    3.0710   -0.2891    0.1733 C   0  0  0  0  0  0  0  0  0  0  0  0
    4.8452    0.8326   -0.7239 C   0  0  0  0  0  0  0  0  0  0  0  0
    5.9390    0.9729   -0.7678 H   0  0  0  0  0  0  0  0  0  0  0  0
    3.9759    1.6071   -1.5074 C   0  0  0  0  0  0  0  0  0  0  0  0
    4.3453    2.3830   -2.1927 H   0  0  0  0  0  0  0  0  0  0  0  0
  2  3  1  0  0  0  0
  4  9  1  0  0  0  0
  5  9  2  0  0  0  0
  6  1  1  1  0  0  0
  6  2  1  0  0  0  0
  7  4  1  0  0  0  0
  8  7  1  0  0  0  0
  9  6  1  0  0  0  0
 10  5  1  0  0  0  0
 11 10  1  0  0  0  0
 12  7  1  0  0  0  0
 12 10  2  0  0  0  0
 13 12  1  0  0  0  0
M  END
