1,14
 OpenBabel05122313063D

 28 28  0  0  1  0  0  0  0  0999 V2000
   -3.0238   -1.9788   -1.3958 O   0  5  0  0  0  0  0  0  0  0  0  0
   -3.6161   -1.7039   -2.5195 C   0  0  0  0  0  0  0  0  0  0  0  0
   -4.3862   -2.8481   -3.1278 C   0  0  0  0  0  0  0  0  0  0  0  0
   -3.7033   -3.7070   -3.2938 H   0  0  0  0  0  0  0  0  0  0  0  0
   -4.8678   -2.5774   -4.0851 H   0  0  0  0  0  0  0  0  0  0  0  0
   -5.1645   -3.1894   -2.4138 H   0  0  0  0  0  0  0  0  0  0  0  0
   -3.5600   -0.4644   -3.1401 C   0  0  0  0  0  0  0  0  0  0  0  0
   -4.0977   -0.3555   -4.0907 H   0  0  0  0  0  0  0  0  0  0  0  0
   -2.8527    0.6901   -2.6743 C   0  0  2  0  0  3  0  0  0  0  0  0
   -2.9221    1.9161   -3.5640 C   0  0  0  0  0  0  0  0  0  0  0  0
   -3.5027    1.7145   -4.4814 H   0  0  0  0  0  0  0  0  0  0  0  0
   -1.9062    2.2537   -3.8510 H   0  0  0  0  0  0  0  0  0  0  0  0
   -3.3902    2.7655   -3.0272 H   0  0  0  0  0  0  0  0  0  0  0  0
   -2.1614    0.7347   -1.5440 N   0  0  0  0  0  2  0  0  0  0  0  0
   -1.5134    1.9552   -1.2242 C   0  0  0  0  0  0  0  0  0  0  0  0
   -0.1706    2.1734   -1.6025 C   0  0  0  0  0  0  0  0  0  0  0  0
    0.3457    1.3832   -2.1646 H   0  0  0  0  0  0  0  0  0  0  0  0
    0.4809    3.3589   -1.2474 C   0  0  0  0  0  0  0  0  0  0  0  0
    1.5281    3.5211   -1.5423 H   0  0  0  0  0  0  0  0  0  0  0  0
   -0.1981    4.3486   -0.5141 C   0  0  0  0  0  0  0  0  0  0  0  0
   -1.5398    4.1437   -0.1467 C   0  0  0  0  0  0  0  0  0  0  0  0
   -2.0745    4.9195    0.4205 H   0  0  0  0  0  0  0  0  0  0  0  0
   -2.1933    2.9566   -0.4974 C   0  0  0  0  0  0  0  0  0  0  0  0
   -3.2351    2.7700   -0.2001 H   0  0  0  0  0  0  0  0  0  0  0  0
    0.5363    5.5732   -0.0447 C   0  0  0  0  0  0  0  0  0  0  0  0
   -0.2821    6.6367    0.1190 F   0  0  0  0  0  0  0  0  0  0  0  0
    1.5271    5.9373   -0.8914 F   0  0  0  0  0  0  0  0  0  0  0  0
    1.1360    5.3618    1.1755 F   0  0  0  0  0  0  0  0  0  0  0  0
  2  1  1  0  0  0  0
  3  2  1  0  0  0  0
  3  6  1  0  0  0  0
  4  3  1  0  0  0  0
  5  3  1  0  0  0  0
  7  2  2  0  0  0  0
  8  7  1  0  0  0  0
  9  7  1  6  0  0  0
  9 14  1  0  0  0  0
 10 13  1  0  0  0  0
 10  9  1  0  0  0  0
 11 10  1  0  0  0  0
 12 10  1  0  0  0  0
 14 15  1  0  0  0  0
 15 23  1  0  0  0  0
 16 18  1  0  0  0  0
 16 15  2  0  0  0  0
 17 16  1  0  0  0  0
 18 20  2  0  0  0  0
 19 18  1  0  0  0  0
 20 21  1  0  0  0  0
 20 25  1  0  0  0  0
 21 22  1  0  0  0  0
 23 24  1  0  0  0  0
 23 21  2  0  0  0  0
 25 26  1  0  0  0  0
 25 28  1  0  0  0  0
 27 25  1  0  0  0  0
M  CHG  1   1  -1
M  END
