1,4
 OpenBabel05122313063D

 55 59  0  0  1  0  0  0  0  0999 V2000
   -2.4640    0.5662   -0.3213 O   0  0  0  0  0  1  0  0  0  0  0  0
   -2.0547    2.8733   -0.3931 N   0  0  0  0  0  0  0  0  0  0  0  0
   -0.9772    3.7375   -0.4055 N   0  0  0  0  0  0  0  0  0  0  0  0
    0.1370   -0.8086   -0.1020 N   0  0  0  0  0  2  0  0  0  0  0  0
   -1.6472    1.5507   -0.3371 C   0  0  1  0  0  3  0  0  0  0  0  0
   -3.3668    3.4029   -0.3971 C   0  0  0  0  0  0  0  0  0  0  0  0
   -4.4981    2.5833   -0.6064 C   0  0  0  0  0  0  0  0  0  0  0  0
   -4.3619    1.5117   -0.7893 H   0  0  0  0  0  0  0  0  0  0  0  0
   -5.7775    3.1571   -0.5911 C   0  0  0  0  0  0  0  0  0  0  0  0
   -6.6532    2.5113   -0.7596 H   0  0  0  0  0  0  0  0  0  0  0  0
   -5.9513    4.5328   -0.3768 C   0  0  0  0  0  0  0  0  0  0  0  0
   -6.9598    4.9725   -0.3680 H   0  0  0  0  0  0  0  0  0  0  0  0
   -4.8202    5.3422   -0.1807 C   0  0  0  0  0  0  0  0  0  0  0  0
   -4.9376    6.4246   -0.0174 H   0  0  0  0  0  0  0  0  0  0  0  0
   -3.5346    4.7893   -0.1892 C   0  0  0  0  0  0  0  0  0  0  0  0
   -2.6381    5.4050   -0.0439 H   0  0  0  0  0  0  0  0  0  0  0  0
    0.1153    2.9942   -0.3420 C   0  0  0  0  0  0  0  0  0  0  0  0
    1.4492    3.6716   -0.3792 C   0  0  0  0  0  0  0  0  0  0  0  0
    2.0938    3.2614   -1.1817 H   0  0  0  0  0  0  0  0  0  0  0  0
    2.0081    3.5441    0.5692 H   0  0  0  0  0  0  0  0  0  0  0  0
    1.2909    4.7517   -0.5567 H   0  0  0  0  0  0  0  0  0  0  0  0
   -0.2166    1.5838   -0.2767 C   0  0  0  0  0  0  0  0  0  0  0  0
    0.6093    0.4348   -0.1440 C   0  0  0  0  0  0  0  0  0  0  0  0
    2.0931    0.6284   -0.0603 C   0  0  0  0  0  0  0  0  0  0  0  0
    2.8889    0.4174   -1.2021 C   0  0  0  0  0  0  0  0  0  0  0  0
    2.4059    0.1306   -2.1481 H   0  0  0  0  0  0  0  0  0  0  0  0
    4.2764    0.5851   -1.1366 C   0  0  0  0  0  0  0  0  0  0  0  0
    4.8799    0.4452   -2.0458 H   0  0  0  0  0  0  0  0  0  0  0  0
    4.9126    0.9597    0.0690 C   0  0  0  0  0  0  0  0  0  0  0  0
    4.1014    1.1675    1.2077 C   0  0  0  0  0  0  0  0  0  0  0  0
    4.5723    1.4332    2.1659 H   0  0  0  0  0  0  0  0  0  0  0  0
    2.7126    1.0077    1.1443 C   0  0  0  0  0  0  0  0  0  0  0  0
    2.0970    1.1701    2.0422 H   0  0  0  0  0  0  0  0  0  0  0  0
    6.3859    1.1260    0.1380 C   0  0  0  0  0  0  0  0  0  0  0  0
    7.2465    0.2875   -0.6069 C   0  0  0  0  0  0  0  0  0  0  0  0
    6.8164   -0.5151   -1.2248 H   0  0  0  0  0  0  0  0  0  0  0  0
    8.6377    0.4424   -0.5412 C   0  0  0  0  0  0  0  0  0  0  0  0
    9.2885   -0.2281   -1.1230 H   0  0  0  0  0  0  0  0  0  0  0  0
    9.2010    1.4400    0.2704 C   0  0  0  0  0  0  0  0  0  0  0  0
   10.2935    1.5621    0.3214 H   0  0  0  0  0  0  0  0  0  0  0  0
    8.3595    2.2808    1.0160 C   0  0  0  0  0  0  0  0  0  0  0  0
    8.7902    3.0727    1.6478 H   0  0  0  0  0  0  0  0  0  0  0  0
    6.9684    2.1252    0.9508 C   0  0  0  0  0  0  0  0  0  0  0  0
    6.3172    2.8079    1.5175 H   0  0  0  0  0  0  0  0  0  0  0  0
    1.0528   -1.8966    0.0454 C   0  0  0  0  0  0  0  0  0  0  0  0
    1.3613   -2.6954   -1.0741 C   0  0  0  0  0  0  0  0  0  0  0  0
    0.8984   -2.4344   -2.0381 H   0  0  0  0  0  0  0  0  0  0  0  0
    2.2112   -3.7996   -0.9276 C   0  0  0  0  0  0  0  0  0  0  0  0
    2.4524   -4.4181   -1.8059 H   0  0  0  0  0  0  0  0  0  0  0  0
    2.7558   -4.1196    0.3290 C   0  0  0  0  0  0  0  0  0  0  0  0
    3.4219   -4.9883    0.4393 H   0  0  0  0  0  0  0  0  0  0  0  0
    2.4485   -3.3213    1.4419 C   0  0  0  0  0  0  0  0  0  0  0  0
    2.8743   -3.5609    2.4282 H   0  0  0  0  0  0  0  0  0  0  0  0
    1.6004   -2.2112    1.3035 C   0  0  0  0  0  0  0  0  0  0  0  0
    1.3550   -1.5776    2.1683 H   0  0  0  0  0  0  0  0  0  0  0  0
  2  5  1  0  0  0  0
  3  2  1  0  0  0  0
  3 17  2  0  0  0  0
  4 45  1  0  0  0  0
  5  1  1  1  0  0  0
  5 22  1  0  0  0  0
  6  2  1  0  0  0  0
  6 15  1  0  0  0  0
  7  9  1  0  0  0  0
  7  6  2  0  0  0  0
  8  7  1  0  0  0  0
  9 11  2  0  0  0  0
 10  9  1  0  0  0  0
 11 12  1  0  0  0  0
 11 13  1  0  0  0  0
 13 14  1  0  0  0  0
 15 13  2  0  0  0  0
 15 16  1  0  0  0  0
 17 22  1  0  0  0  0
 18 17  1  0  0  0  0
 18 20  1  0  0  0  0
 19 18  1  0  0  0  0
 21 18  1  0  0  0  0
 22 23  2  0  0  0  0
 23  4  1  0  0  0  0
 23 24  1  0  0  0  0
 24 32  1  0  0  0  0
 25 27  1  0  0  0  0
 25 24  2  0  0  0  0
 26 25  1  0  0  0  0
 27 29  2  0  0  0  0
 28 27  1  0  0  0  0
 29 34  1  0  0  0  0
 29 30  1  0  0  0  0
 30 31  1  0  0  0  0
 32 30  2  0  0  0  0
 32 33  1  0  0  0  0
 34 43  1  0  0  0  0
 35 37  1  0  0  0  0
 35 34  2  0  0  0  0
 36 35  1  0  0  0  0
 37 39  2  0  0  0  0
 38 37  1  0  0  0  0
 39 40  1  0  0  0  0
 39 41  1  0  0  0  0
 41 42  1  0  0  0  0
 43 41  2  0  0  0  0
 43 44  1  0  0  0  0
 45 54  1  0  0  0  0
 46 48  1  0  0  0  0
 46 45  2  0  0  0  0
 47 46  1  0  0  0  0
 48 50  2  0  0  0  0
 49 48  1  0  0  0  0
 50 51  1  0  0  0  0
 50 52  1  0  0  0  0
 52 53  1  0  0  0  0
 54 52  2  0  0  0  0
 54 55  1  0  0  0  0
M  END
