1,2
 OpenBabel05122313063D

 31 31  0  0  1  0  0  0  0  0999 V2000
   -0.2565   -1.4077    0.3278 N   0  0  0  0  0  2  0  0  0  0  0  0
   -1.9111    0.1473   -1.2206 O   0  5  0  0  0  0  0  0  0  0  0  0
    0.9925   -1.8681    0.8497 C   0  0  0  0  0  0  0  0  0  0  0  0
    1.5649   -1.2604    1.9840 C   0  0  0  0  0  0  0  0  0  0  0  0
    1.0282   -0.4443    2.4863 H   0  0  0  0  0  0  0  0  0  0  0  0
    2.8076   -1.6985    2.4645 C   0  0  0  0  0  0  0  0  0  0  0  0
    3.2462   -1.2150    3.3507 H   0  0  0  0  0  0  0  0  0  0  0  0
    3.4886   -2.7405    1.8178 C   0  0  0  0  0  0  0  0  0  0  0  0
    4.4670   -3.0776    2.1907 H   0  0  0  0  0  0  0  0  0  0  0  0
    2.9198   -3.3414    0.6831 C   0  0  0  0  0  0  0  0  0  0  0  0
    3.4546   -4.1482    0.1599 H   0  0  0  0  0  0  0  0  0  0  0  0
    1.6830   -2.9060    0.1920 C   0  0  0  0  0  0  0  0  0  0  0  0
    1.2441   -3.3383   -0.7183 H   0  0  0  0  0  0  0  0  0  0  0  0
   -1.3831   -1.9233    0.7866 C   0  0  2  0  0  3  0  0  0  0  0  0
   -1.3900   -3.0109    1.8591 C   0  0  0  0  0  0  0  0  0  0  0  0
   -0.3431   -3.1543    2.1884 H   0  0  0  0  0  0  0  0  0  0  0  0
   -2.2134   -2.5978    3.0890 C   0  0  0  0  0  0  0  0  0  0  0  0
   -1.8439   -1.6477    3.5244 H   0  0  0  0  0  0  0  0  0  0  0  0
   -2.1419   -3.3807    3.8707 H   0  0  0  0  0  0  0  0  0  0  0  0
   -3.2875   -2.4635    2.8488 H   0  0  0  0  0  0  0  0  0  0  0  0
   -1.8718   -4.3418    1.2552 C   0  0  0  0  0  0  0  0  0  0  0  0
   -1.8106   -5.1467    2.0153 H   0  0  0  0  0  0  0  0  0  0  0  0
   -1.2473   -4.6377    0.3891 H   0  0  0  0  0  0  0  0  0  0  0  0
   -2.9240   -4.2813    0.9101 H   0  0  0  0  0  0  0  0  0  0  0  0
   -2.6703   -1.5214    0.2846 C   0  0  0  0  0  0  0  0  0  0  0  0
   -3.5614   -2.0119    0.6912 H   0  0  0  0  0  0  0  0  0  0  0  0
   -2.8533   -0.5374   -0.6585 C   0  0  0  0  0  0  0  0  0  0  0  0
   -4.2582   -0.1695   -1.1479 C   0  0  0  0  0  0  0  0  0  0  0  0
   -5.2187   -0.8610   -0.4902 F   0  0  0  0  0  0  0  0  0  0  0  0
   -4.5028    1.1458   -0.9734 F   0  0  0  0  0  0  0  0  0  0  0  0
   -4.3785   -0.4404   -2.4627 F   0  0  0  0  0  0  0  0  0  0  0  0
  1 14  1  0  0  0  0
  1  3  1  0  0  0  0
  2 27  1  0  0  0  0
  3  4  1  0  0  0  0
  4  6  2  0  0  0  0
  4  5  1  0  0  0  0
  6  7  1  0  0  0  0
  8  9  1  0  0  0  0
  8  6  1  0  0  0  0
 10  8  2  0  0  0  0
 11 10  1  0  0  0  0
 12 10  1  0  0  0  0
 12  3  2  0  0  0  0
 13 12  1  0  0  0  0
 14 25  1  6  0  0  0
 14 15  1  0  0  0  0
 15 16  1  0  0  0  0
 15 17  1  0  0  0  0
 17 18  1  0  0  0  0
 17 19  1  0  0  0  0
 20 17  1  0  0  0  0
 21 15  1  0  0  0  0
 21 22  1  0  0  0  0
 23 21  1  0  0  0  0
 24 21  1  0  0  0  0
 25 26  1  0  0  0  0
 27 25  2  0  0  0  0
 28 30  1  0  0  0  0
 28 27  1  0  0  0  0
 28 29  1  0  0  0  0
 31 28  1  0  0  0  0
M  CHG  1   2  -1
M  END
