1,4
 OpenBabel05122313063D

 30 31  0  0  0  0  0  0  0  0999 V2000
    1.3956    0.3864    1.2104 O   0  5  0  0  0  0  0  0  0  0  0  0
    6.5785    3.2896   -0.8060 O   0  0  0  0  0  0  0  0  0  0  0  0
    7.2515    2.5652    1.1473 O   0  0  0  0  0  0  0  0  0  0  0  0
    0.5615    1.4076   -1.1967 N   0  0  0  0  0  2  0  0  0  0  0  0
    6.3935    2.7066    0.2686 N   0  0  0  0  0  0  0  0  0  0  0  0
    2.7992    1.7056   -0.2378 C   0  0  0  0  0  0  0  0  0  0  0  0
    2.5264    0.9627    0.9709 C   0  0  0  0  0  0  0  0  0  0  0  0
    3.5676    0.8986    1.9572 C   0  0  0  0  0  0  0  0  0  0  0  0
    3.3451    0.3769    2.8989 H   0  0  0  0  0  0  0  0  0  0  0  0
    4.8152    1.4565    1.7314 C   0  0  0  0  0  0  0  0  0  0  0  0
    5.6251    1.3895    2.4704 H   0  0  0  0  0  0  0  0  0  0  0  0
    5.0689    2.1373    0.5170 C   0  0  0  0  0  0  0  0  0  0  0  0
    4.0693    2.2791   -0.4446 C   0  0  0  0  0  3  0  0  0  0  0  0
    4.2968    2.8426   -1.3607 H   0  0  0  0  0  0  0  0  0  0  0  0
    1.7596    1.9299   -1.2023 C   0  0  0  0  0  0  0  0  0  0  0  0
    1.9988    2.6537   -2.0076 H   0  0  0  0  0  0  0  0  0  0  0  0
   -0.3848    1.9409   -2.1797 C   0  0  0  0  0  0  0  0  0  0  0  0
   -0.9060    1.0953   -2.6604 H   0  0  0  0  0  0  0  0  0  0  0  0
    0.1841    2.4930   -2.9612 H   0  0  0  0  0  0  0  0  0  0  0  0
   -1.4029    2.8756   -1.5513 C   0  0  0  0  0  0  0  0  0  0  0  0
   -1.0026    3.8864   -0.6565 C   0  0  0  0  0  0  0  0  0  0  0  0
    0.0521    3.9576   -0.3490 H   0  0  0  0  0  0  0  0  0  0  0  0
   -1.9349    4.8010   -0.1463 C   0  0  0  0  0  0  0  0  0  0  0  0
   -1.6030    5.5900    0.5460 H   0  0  0  0  0  0  0  0  0  0  0  0
   -3.2856    4.7165   -0.5230 C   0  0  0  0  0  0  0  0  0  0  0  0
   -4.0155    5.4422   -0.1329 H   0  0  0  0  0  0  0  0  0  0  0  0
   -3.6978    3.6989   -1.3967 C   0  0  0  0  0  0  0  0  0  0  0  0
   -4.7556    3.6159   -1.6902 H   0  0  0  0  0  0  0  0  0  0  0  0
   -2.7622    2.7827   -1.9008 C   0  0  0  0  0  0  0  0  0  0  0  0
   -3.0917    1.9831   -2.5805 H   0  0  0  0  0  0  0  0  0  0  0  0
  2  5  2  0  0  0  0
  5 12  1  0  0  0  0
  5  3  2  0  0  0  0
  6  7  1  0  0  0  0
  7  1  1  0  0  0  0
  7  8  2  0  0  0  0
  8  9  1  0  0  0  0
 10  8  1  0  0  0  0
 10 11  1  0  0  0  0
 12 10  2  0  0  0  0
 13  6  1  0  0  0  0
 13 12  1  0  0  0  0
 14 13  1  0  0  0  0
 15  4  1  0  0  0  0
 15  6  2  0  0  0  0
 16 15  1  0  0  0  0
 17 20  1  0  0  0  0
 17  4  1  0  0  0  0
 18 17  1  0  0  0  0
 19 17  1  0  0  0  0
 20 21  1  0  0  0  0
 21 22  1  0  0  0  0
 21 23  2  0  0  0  0
 23 24  1  0  0  0  0
 25 23  1  0  0  0  0
 25 26  1  0  0  0  0
 27 25  2  0  0  0  0
 28 27  1  0  0  0  0
 29 20  2  0  0  0  0
 29 27  1  0  0  0  0
 30 29  1  0  0  0  0
M  CHG  1   1  -1
M  END
