1,11
 OpenBabel05122313063D

 22 22  0  0  1  0  0  0  0  0999 V2000
   -1.5553   -0.5359   -0.1160 N   0  0  0  0  0  2  0  0  0  0  0  0
   -1.9996   -1.7308    0.4020 C   0  0  0  0  0  0  0  0  0  0  0  0
   -1.3103   -2.5016    1.0595 O   0  0  0  0  0  0  0  0  0  0  0  0
   -3.3112   -2.0852    0.2000 O   0  0  0  0  0  0  0  0  0  0  0  0
   -4.1360   -1.3351   -0.6966 C   0  0  0  0  0  0  0  0  0  0  0  0
   -3.9080    0.1509   -0.4987 C   0  0  0  0  0  0  0  0  0  0  0  0
   -2.4434    0.4343   -0.8024 C   0  0  1  0  0  0  0  0  0  0  0  0
   -1.9148    1.8297   -0.4370 C   0  0  1  0  0  0  0  0  0  0  0  0
   -2.2724    2.2906    0.9839 C   0  0  0  0  0  0  0  0  0  0  0  0
   -1.5568    3.5776    1.3909 C   0  0  0  0  0  0  0  0  0  0  0  0
   -0.4965    1.7925   -0.6145 O   0  0  0  0  0  1  0  0  0  0  0  0
   -5.1769   -1.6386   -0.4699 H   0  0  0  0  0  0  0  0  0  0  0  0
   -3.9134   -1.6327   -1.7473 H   0  0  0  0  0  0  0  0  0  0  0  0
   -4.5624    0.7474   -1.1664 H   0  0  0  0  0  0  0  0  0  0  0  0
   -4.1564    0.4154    0.5492 H   0  0  0  0  0  0  0  0  0  0  0  0
   -2.2842    0.3145   -1.9009 H   0  0  0  0  0  0  0  0  0  0  0  0
   -2.3072    2.5715   -1.1722 H   0  0  0  0  0  0  0  0  0  0  0  0
   -3.3725    2.4371    1.0420 H   0  0  0  0  0  0  0  0  0  0  0  0
   -2.0156    1.4753    1.6936 H   0  0  0  0  0  0  0  0  0  0  0  0
   -1.8680    3.9054    2.4029 H   0  0  0  0  0  0  0  0  0  0  0  0
   -1.7747    4.4064    0.6847 H   0  0  0  0  0  0  0  0  0  0  0  0
   -0.4605    3.4258    1.4027 H   0  0  0  0  0  0  0  0  0  0  0  0
  1  2  1  0  0  0  0
  2  3  2  0  0  0  0
  4  2  1  0  0  0  0
  5  6  1  0  0  0  0
  5 12  1  0  0  0  0
  5  4  1  0  0  0  0
  6 15  1  0  0  0  0
  7 16  1  6  0  0  0
  7  6  1  0  0  0  0
  7  8  1  0  0  0  0
  7  1  1  0  0  0  0
  8 17  1  6  0  0  0
  8  9  1  0  0  0  0
  9 18  1  0  0  0  0
  9 10  1  0  0  0  0
  9 19  1  0  0  0  0
 10 22  1  0  0  0  0
 10 20  1  0  0  0  0
 11  8  1  0  0  0  0
 13  5  1  0  0  0  0
 14  6  1  0  0  0  0
 21 10  1  0  0  0  0
M  END
