1,2
 OpenBabel05122313063D

 28 29  0  0  0  0  0  0  0  0999 V2000
    1.5293    0.3528    0.5631 O   0  5  0  0  0  0  0  0  0  0  0  0
    0.9320   -1.8474   -1.3714 N   0  0  0  0  0  2  0  0  0  0  0  0
    0.2367   -2.8393   -1.9764 C   0  0  0  0  0  3  0  0  0  0  0  0
   -0.7998   -2.9761   -1.6252 H   0  0  0  0  0  0  0  0  0  0  0  0
    0.7666   -3.6458   -2.9764 C   0  0  0  0  0  0  0  0  0  0  0  0
    0.1587   -4.4375   -3.4345 H   0  0  0  0  0  0  0  0  0  0  0  0
    2.1017   -3.4002   -3.3748 C   0  0  0  0  0  0  0  0  0  0  0  0
    2.5668   -4.0082   -4.1660 H   0  0  0  0  0  0  0  0  0  0  0  0
    2.8232   -2.3879   -2.7618 C   0  0  0  0  0  0  0  0  0  0  0  0
    3.8625   -2.1802   -3.0546 H   0  0  0  0  0  0  0  0  0  0  0  0
    2.2382   -1.5863   -1.7286 C   0  0  0  0  0  0  0  0  0  0  0  0
    3.0122   -0.5525   -1.1122 C   0  0  0  0  0  0  0  0  0  0  0  0
    4.0151   -0.4176   -1.5382 H   0  0  0  0  0  0  0  0  0  0  0  0
    2.6643    0.3163   -0.0635 C   0  0  0  0  0  0  0  0  0  0  0  0
    3.6816    1.3188    0.3944 C   0  0  0  0  0  0  0  0  0  0  0  0
    5.0275    0.9249    0.5549 C   0  0  0  0  0  0  0  0  0  0  0  0
    5.2997   -0.1217    0.3507 H   0  0  0  0  0  0  0  0  0  0  0  0
    6.0054    1.8255    0.9953 C   0  0  0  0  0  0  0  0  0  0  0  0
    7.0458    1.4911    1.1254 H   0  0  0  0  0  0  0  0  0  0  0  0
    5.6424    3.1512    1.2720 C   0  0  0  0  0  0  0  0  0  0  0  0
    6.3969    3.8757    1.6148 H   0  0  0  0  0  0  0  0  0  0  0  0
    4.3089    3.5538    1.1094 C   0  0  0  0  0  0  0  0  0  0  0  0
    4.0293    4.5990    1.3171 H   0  0  0  0  0  0  0  0  0  0  0  0
    3.3048    2.6622    0.6824 C   0  0  0  0  0  0  0  0  0  0  0  0
    1.8899    3.1629    0.5273 C   0  0  0  0  0  0  0  0  0  0  0  0
    1.4303    2.8231   -0.4220 H   0  0  0  0  0  0  0  0  0  0  0  0
    1.8613    4.2695    0.5568 H   0  0  0  0  0  0  0  0  0  0  0  0
    1.2389    2.7691    1.3325 H   0  0  0  0  0  0  0  0  0  0  0  0
  3  4  1  0  0  0  0
  3  2  1  0  0  0  0
  5  3  1  0  0  0  0
  6  5  1  0  0  0  0
  7  5  2  0  0  0  0
  7  9  1  0  0  0  0
  8  7  1  0  0  0  0
  9 11  2  0  0  0  0
 10  9  1  0  0  0  0
 11  2  1  0  0  0  0
 11 12  1  0  0  0  0
 12 14  2  0  0  0  0
 13 12  1  0  0  0  0
 14 15  1  0  0  0  0
 14  1  1  0  0  0  0
 15 16  2  0  0  0  0
 15 24  1  0  0  0  0
 16 18  1  0  0  0  0
 17 16  1  0  0  0  0
 18 19  1  0  0  0  0
 18 20  2  0  0  0  0
 20 21  1  0  0  0  0
 22 20  1  0  0  0  0
 22 23  1  0  0  0  0
 24 22  2  0  0  0  0
 25 27  1  0  0  0  0
 25 24  1  0  0  0  0
 25 28  1  0  0  0  0
 26 25  1  0  0  0  0
M  CHG  1   1  -1
M  END
