1,14
 OpenBabel05122313063D

 25 25  0  0  0  0  0  0  0  0999 V2000
    0.3190    1.9809    0.0922 N   0  0  0  0  0  2  0  0  0  0  0  0
    1.5029    2.5047   -0.0681 C   0  0  0  0  0  3  0  0  0  0  0  0
    2.7590    1.8131   -0.1790 C   0  0  0  0  0  0  0  0  0  0  0  0
    3.9661    2.5680   -0.2293 C   0  0  0  0  0  0  0  0  0  0  0  0
    5.1889    1.9313   -0.3803 C   0  0  0  0  0  0  0  0  0  0  0  0
    5.2436    0.5199   -0.4991 C   0  0  0  0  0  0  0  0  0  0  0  0
    4.0750   -0.2450   -0.4656 C   0  0  0  0  0  0  0  0  0  0  0  0
    4.0215   -1.6027   -0.5703 O   0  0  0  0  0  0  0  0  0  0  0  0
    5.2380   -2.3049   -0.7124 C   0  0  0  0  0  0  0  0  0  0  0  0
    5.9151   -2.1431    0.1572 H   0  0  0  0  0  0  0  0  0  0  0  0
    5.7809   -2.0147   -1.6409 H   0  0  0  0  0  0  0  0  0  0  0  0
    4.9771   -3.3782   -0.7696 H   0  0  0  0  0  0  0  0  0  0  0  0
    2.7906    0.3904   -0.2984 C   0  0  0  0  0  0  0  0  0  0  0  0
    1.7303   -0.3695   -0.2980 O   0  5  0  0  0  0  0  0  0  0  0  0
    6.2202    0.0301   -0.6153 H   0  0  0  0  0  0  0  0  0  0  0  0
    6.1224    2.5117   -0.4096 H   0  0  0  0  0  0  0  0  0  0  0  0
    3.9103    3.6641   -0.1410 H   0  0  0  0  0  0  0  0  0  0  0  0
    1.5636    3.6117   -0.1377 H   0  0  0  0  0  0  0  0  0  0  0  0
   -0.8223    2.9019    0.1649 C   0  0  0  0  0  0  0  0  0  0  0  0
   -1.4580    2.9460    1.5524 C   0  0  0  0  0  0  0  0  0  0  0  0
   -0.7301    3.2696    2.3240 H   0  0  0  0  0  0  0  0  0  0  0  0
   -1.8476    1.9503    1.8335 H   0  0  0  0  0  0  0  0  0  0  0  0
   -2.3062    3.6596    1.5482 H   0  0  0  0  0  0  0  0  0  0  0  0
   -1.5832    2.5494   -0.5582 H   0  0  0  0  0  0  0  0  0  0  0  0
   -0.4811    3.9170   -0.1379 H   0  0  0  0  0  0  0  0  0  0  0  0
  1 19  1  0  0  0  0
  2  1  1  0  0  0  0
  3  2  1  0  0  0  0
  4  3  1  0  0  0  0
  4 17  1  0  0  0  0
  5  4  2  0  0  0  0
  6  7  2  0  0  0  0
  6  5  1  0  0  0  0
  7 13  1  0  0  0  0
  8  7  1  0  0  0  0
  9  8  1  0  0  0  0
  9 10  1  0  0  0  0
 11  9  1  0  0  0  0
 12  9  1  0  0  0  0
 13 14  1  0  0  0  0
 13  3  2  0  0  0  0
 15  6  1  0  0  0  0
 16  5  1  0  0  0  0
 18  2  1  0  0  0  0
 19 20  1  0  0  0  0
 20 22  1  0  0  0  0
 20 21  1  0  0  0  0
 23 20  1  0  0  0  0
 24 19  1  0  0  0  0
 25 19  1  0  0  0  0
M  CHG  1  14  -1
M  END
