1,2
 OpenBabel05122313063D

 37 40  0  0  0  0  0  0  0  0999 V2000
   -1.6860   -0.5910   -0.4546 O   0  5  0  0  0  0  0  0  0  0  0  0
    0.7444   -1.7288   -0.2567 N   0  0  0  0  0  2  0  0  0  0  0  0
    0.0439   -2.8515   -0.2481 C   0  0  0  0  0  0  0  0  0  0  0  0
   -1.3737   -2.9706   -0.2010 C   0  0  0  0  0  0  0  0  0  0  0  0
   -2.1705   -1.7924   -0.3742 C   0  0  0  0  0  0  0  0  0  0  0  0
   -3.5989   -1.9265   -0.5077 C   0  0  0  0  0  0  0  0  0  0  0  0
   -4.2007   -3.1588   -0.4282 C   0  0  0  0  0  0  0  0  0  0  0  0
   -3.4451   -4.3601   -0.2152 C   0  0  0  0  0  0  0  0  0  0  0  0
   -4.0895   -5.6220   -0.1176 C   0  0  0  0  0  3  0  0  0  0  0  0
   -3.3615   -6.7868    0.0960 C   0  0  0  0  0  0  0  0  0  0  0  0
   -1.9558   -6.7076    0.2260 C   0  0  0  0  0  0  0  0  0  0  0  0
   -1.3007   -5.4818    0.1373 C   0  0  0  0  0  0  0  0  0  0  0  0
   -2.0138   -4.2731   -0.0948 C   0  0  0  0  0  0  0  0  0  0  0  0
    2.9186   -2.6023    0.4769 C   0  0  0  0  0  0  0  0  0  0  0  0
    2.1576   -1.8449   -0.4054 C   0  0  0  0  0  0  0  0  0  0  0  0
    2.7912   -1.1544   -1.4811 C   0  0  0  0  0  0  0  0  0  0  0  0
    4.1579   -1.2450   -1.6600 C   0  0  0  0  0  0  0  0  0  0  0  0
    4.9695   -2.0156   -0.7727 C   0  0  0  0  0  0  0  0  0  0  0  0
    6.3822   -2.1173   -0.9224 C   0  0  0  0  0  0  0  0  0  0  0  0
    7.1403   -2.8686   -0.0349 C   0  0  0  0  0  0  0  0  0  0  0  0
    6.5123   -3.5501    1.0420 C   0  0  0  0  0  0  0  0  0  0  0  0
    5.1377   -3.4717    1.2148 C   0  0  0  0  0  0  0  0  0  0  0  0
    4.3307   -2.7100    0.3195 C   0  0  0  0  0  0  0  0  0  0  0  0
   -4.1731   -1.0015   -0.6605 H   0  0  0  0  0  0  0  0  0  0  0  0
   -5.2955   -3.2417   -0.5209 H   0  0  0  0  0  0  0  0  0  0  0  0
   -5.1862   -5.6586   -0.2141 H   0  0  0  0  0  0  0  0  0  0  0  0
   -3.8713   -7.7588    0.1696 H   0  0  0  0  0  0  0  0  0  0  0  0
   -1.3698   -7.6219    0.4062 H   0  0  0  0  0  0  0  0  0  0  0  0
   -0.2091   -5.4609    0.2667 H   0  0  0  0  0  0  0  0  0  0  0  0
    0.6300   -3.7819   -0.3502 H   0  0  0  0  0  0  0  0  0  0  0  0
    2.4315   -3.0988    1.3300 H   0  0  0  0  0  0  0  0  0  0  0  0
    2.1676   -0.5520   -2.1567 H   0  0  0  0  0  0  0  0  0  0  0  0
    4.6409   -0.7141   -2.4949 H   0  0  0  0  0  0  0  0  0  0  0  0
    6.8643   -1.5865   -1.7583 H   0  0  0  0  0  0  0  0  0  0  0  0
    8.2311   -2.9382   -0.1627 H   0  0  0  0  0  0  0  0  0  0  0  0
    7.1216   -4.1419    1.7418 H   0  0  0  0  0  0  0  0  0  0  0  0
    4.6495   -3.9980    2.0499 H   0  0  0  0  0  0  0  0  0  0  0  0
  1  5  1  0  0  0  0
  2  3  1  0  0  0  0
  3  4  2  0  0  0  0
  4 13  1  0  0  0  0
  5  4  1  0  0  0  0
  6  7  1  0  0  0  0
  6  5  2  0  0  0  0
  7  8  2  0  0  0  0
  8  9  1  0  0  0  0
  8 13  1  0  0  0  0
  9 10  1  0  0  0  0
 10 27  1  0  0  0  0
 10 11  2  0  0  0  0
 11 28  1  0  0  0  0
 12 11  1  0  0  0  0
 12 29  1  0  0  0  0
 13 12  2  0  0  0  0
 14 31  1  0  0  0  0
 15  2  1  0  0  0  0
 15 14  2  0  0  0  0
 16 15  1  0  0  0  0
 17 16  2  0  0  0  0
 17 18  1  0  0  0  0
 18 23  1  0  0  0  0
 19 18  2  0  0  0  0
 19 20  1  0  0  0  0
 20 21  2  0  0  0  0
 21 22  1  0  0  0  0
 21 36  1  0  0  0  0
 22 37  1  0  0  0  0
 23 14  1  0  0  0  0
 23 22  2  0  0  0  0
 24  6  1  0  0  0  0
 25  7  1  0  0  0  0
 26  9  1  0  0  0  0
 30  3  1  0  0  0  0
 32 16  1  0  0  0  0
 33 17  1  0  0  0  0
 34 19  1  0  0  0  0
 35 20  1  0  0  0  0
M  CHG  1   1  -1
M  END
