4,6
 OpenBabel05122313063D

 26 28  0  0  1  0  0  0  0  0999 V2000
   -3.6871   -3.4777   -0.5754 S   0  0  0  0  0  0  0  0  0  0  0  0
   -0.4503   -2.4644   -1.8789 S   0  0  0  0  0  0  0  0  0  0  0  0
   -4.6653   -0.6793    0.5538 O   0  0  0  0  0  0  0  0  0  0  0  0
   -0.6257    0.6303   -1.3088 O   0  5  0  0  0  0  0  0  0  0  0  0
   -2.7035    0.3704   -0.2288 N   0  0  0  0  0  0  0  0  0  0  0  0
   -1.9941    2.5997    0.3277 N   0  0  0  0  0  2  0  0  0  0  0  0
   -2.6255    3.7061    0.7939 N   0  0  0  0  0  0  0  0  0  0  0  0
   -3.5888   -0.7399    0.0002 C   0  0  0  0  0  0  0  0  0  0  0  0
   -1.5593   -0.0741   -0.9275 C   0  0  0  0  0  0  0  0  0  0  0  0
   -1.7028   -1.5360   -1.1108 C   0  0  0  0  0  0  0  0  0  0  0  0
   -2.9126   -1.9294   -0.5913 C   0  0  2  0  0  3  0  0  0  0  0  0
   -1.0848   -4.1401   -1.4794 C   0  0  0  0  0  0  0  0  0  0  0  0
   -0.4868   -4.8161   -2.1230 H   0  0  0  0  0  0  0  0  0  0  0  0
   -0.8489   -4.3626   -0.4202 H   0  0  0  0  0  0  0  0  0  0  0  0
   -2.5766   -4.3450   -1.7502 C   0  0  0  0  0  0  0  0  0  0  0  0
   -2.8374   -5.4155   -1.6292 H   0  0  0  0  0  0  0  0  0  0  0  0
   -2.8424   -4.0419   -2.7819 H   0  0  0  0  0  0  0  0  0  0  0  0
   -2.9721    1.6696    0.2106 C   0  0  2  0  0  3  0  0  0  0  0  0
   -4.2239    2.2005    0.6085 C   0  0  0  0  0  0  0  0  0  0  0  0
   -3.9618    3.5198    0.9840 C   0  0  0  0  0  0  0  0  0  0  0  0
   -4.8601    4.5874    1.5105 C   0  0  0  0  0  0  0  0  0  0  0  0
   -4.6602    4.7934    2.5826 H   0  0  0  0  0  0  0  0  0  0  0  0
   -5.9152    4.2730    1.4195 H   0  0  0  0  0  0  0  0  0  0  0  0
   -4.7368    5.5385    0.9539 H   0  0  0  0  0  0  0  0  0  0  0  0
   -2.0807    4.5527    0.9553 H   0  0  0  0  0  0  0  0  0  0  0  0
   -5.1814    1.6768    0.6345 H   0  0  0  0  0  0  0  0  0  0  0  0
  2 12  1  0  0  0  0
  2 10  1  0  0  0  0
  4  9  1  0  0  0  0
  5  8  1  0  0  0  0
  6  7  1  0  0  0  0
  7 25  1  0  0  0  0
  7 20  1  0  0  0  0
  8  3  2  0  0  0  0
  9  5  1  0  0  0  0
 10  9  2  0  0  0  0
 11 10  1  6  0  0  0
 11  1  1  0  0  0  0
 11  8  1  0  0  0  0
 12 14  1  0  0  0  0
 13 12  1  0  0  0  0
 15 16  1  0  0  0  0
 15 12  1  0  0  0  0
 15  1  1  0  0  0  0
 17 15  1  0  0  0  0
 18  5  1  1  0  0  0
 18  6  1  0  0  0  0
 18 19  1  0  0  0  0
 19 26  1  0  0  0  0
 19 20  2  0  0  0  0
 20 21  1  0  0  0  0
 21 22  1  0  0  0  0
 23 21  1  0  0  0  0
 24 21  1  0  0  0  0
M  CHG  1   4  -1
M  END
