3,6
 OpenBabel05122313063D

 17 17  0  0  1  0  0  0  0  0999 V2000
   -0.0772    1.4905    1.4233 O   0  0  0  0  0  0  0  0  0  0  0  0
    1.4482    3.1100    1.8395 O   0  0  0  0  0  0  0  0  0  0  0  0
    1.0725   -2.2553   -1.1068 O   0  5  0  0  0  0  0  0  0  0  0  0
    3.2349   -2.8486   -1.5039 O   0  0  0  0  0  0  0  0  0  0  0  0
    5.8256    1.1765    0.3355 O   0  0  0  0  0  0  0  0  0  0  0  0
    1.8731   -0.0744    0.2652 N   0  0  0  0  0  2  0  0  0  0  0  0
    2.2182    1.1002    0.8227 C   0  0  1  0  0  3  0  0  0  0  0  0
    3.5408    1.5564    0.8601 C   0  0  0  0  0  0  0  0  0  0  0  0
    4.5419    0.7403    0.2903 C   0  0  0  0  0  0  0  0  0  0  0  0
    4.1657   -0.4734   -0.3059 C   0  0  0  0  0  0  0  0  0  0  0  0
    2.8134   -0.8372   -0.3140 C   0  0  0  0  0  0  0  0  0  0  0  0
    1.0702    1.8882    1.3805 C   0  0  0  0  0  0  0  0  0  0  0  0
    2.3462   -2.1169   -1.0448 C   0  0  0  0  0  0  0  0  0  0  0  0
    0.6152    3.5270    2.1478 H   0  0  0  0  0  0  0  0  0  0  0  0
    3.7945    2.5231    1.3123 H   0  0  0  0  0  0  0  0  0  0  0  0
    6.3805    0.5090   -0.1116 H   0  0  0  0  0  0  0  0  0  0  0  0
    4.8689   -1.1681   -0.7944 H   0  0  0  0  0  0  0  0  0  0  0  0
  2 14  1  0  0  0  0
  3 13  1  0  0  0  0
  4 13  2  0  0  0  0
  6  7  1  0  0  0  0
  7  8  1  0  0  0  0
  7 12  1  6  0  0  0
  8 15  1  0  0  0  0
  9  5  1  0  0  0  0
  9  8  2  0  0  0  0
 10  9  1  0  0  0  0
 11 10  2  0  0  0  0
 11  6  1  0  0  0  0
 12  1  2  0  0  0  0
 12  2  1  0  0  0  0
 13 11  1  0  0  0  0
 16  5  1  0  0  0  0
 17 10  1  0  0  0  0
M  CHG  1   3  -1
M  END
