8,9
 OpenBabel05122313063D

 29 29  0  0  1  0  0  0  0  0999 V2000
    3.0513   -1.1864    0.9802 F   0  0  0  0  0  0  0  0  0  0  0  0
    4.2162    0.5307    1.7098 F   0  0  0  0  0  0  0  0  0  0  0  0
    3.4410   -0.0820   -1.6814 F   0  0  0  0  0  0  0  0  0  0  0  0
    4.9368    1.2338   -0.7402 F   0  0  0  0  0  0  0  0  0  0  0  0
    4.7283   -2.2793   -0.8729 F   0  0  0  0  0  0  0  0  0  0  0  0
    6.1518   -0.8695   -1.7318 F   0  0  0  0  0  0  0  0  0  0  0  0
    6.0597   -1.1383    0.4335 F   0  0  0  0  0  0  0  0  0  0  0  0
    1.1368    0.2664    0.2137 O   0  0  0  0  0  1  0  0  0  0  0  0
   -0.1651    2.7271   -0.0359 N   0  0  0  0  0  2  0  0  0  0  0  0
    4.3133    3.6389    1.4422 N   0  0  0  0  0  0  0  0  0  0  0  0
    2.1538    0.9594    0.5296 C   0  0  2  0  0  3  0  0  0  0  0  0
    2.1800    2.3633    0.6601 C   0  0  0  0  0  0  0  0  0  0  0  0
    1.0297    3.1902    0.3254 C   0  0  0  0  0  0  0  0  0  0  0  0
    3.3674    3.0361    1.0878 C   0  0  0  0  0  0  0  0  0  0  0  0
    3.4271    0.0944    0.6960 C   0  0  0  0  0  0  0  0  0  0  0  0
    4.2779    0.0591   -0.6161 C   0  0  0  0  0  0  0  0  0  0  0  0
    5.3291   -1.0924   -0.6916 C   0  0  0  0  0  0  0  0  0  0  0  0
    1.2091    4.6936    0.3485 C   0  0  0  0  0  0  0  0  0  0  0  0
    0.5393    5.0959    1.1403 H   0  0  0  0  0  0  0  0  0  0  0  0
    2.2388    4.9663    0.6359 H   0  0  0  0  0  0  0  0  0  0  0  0
   -1.1103    3.7818   -0.4476 C   0  0  0  0  0  0  0  0  0  0  0  0
   -1.4061    4.3820    0.4435 H   0  0  0  0  0  0  0  0  0  0  0  0
   -2.0326    3.3093   -0.8187 H   0  0  0  0  0  0  0  0  0  0  0  0
   -0.4947    4.6923   -1.5161 C   0  0  0  0  0  0  0  0  0  0  0  0
   -0.3101    4.0782   -2.4218 H   0  0  0  0  0  0  0  0  0  0  0  0
   -1.2393    5.4624   -1.8026 H   0  0  0  0  0  0  0  0  0  0  0  0
    0.8168    5.3219   -1.0043 C   0  0  0  0  0  0  0  0  0  0  0  0
    1.6406    5.1645   -1.7288 H   0  0  0  0  0  0  0  0  0  0  0  0
    0.7180    6.4180   -0.8719 H   0  0  0  0  0  0  0  0  0  0  0  0
  3 16  1  0  0  0  0
  4 16  1  0  0  0  0
  5 17  1  0  0  0  0
  6 17  1  0  0  0  0
  9 13  1  0  0  0  0
 11  8  1  6  0  0  0
 11 12  1  0  0  0  0
 11 15  1  0  0  0  0
 12 14  1  0  0  0  0
 13 18  1  0  0  0  0
 13 12  2  0  0  0  0
 14 10  3  0  0  0  0
 15  1  1  0  0  0  0
 15  2  1  0  0  0  0
 16 15  1  0  0  0  0
 17 16  1  0  0  0  0
 17  7  1  0  0  0  0
 18 20  1  0  0  0  0
 18 19  1  0  0  0  0
 21  9  1  0  0  0  0
 21 22  1  0  0  0  0
 23 21  1  0  0  0  0
 24 27  1  0  0  0  0
 24 21  1  0  0  0  0
 25 24  1  0  0  0  0
 26 24  1  0  0  0  0
 27 29  1  0  0  0  0
 27 18  1  0  0  0  0
 28 27  1  0  0  0  0
M  END
