1,4
 OpenBabel05122313063D

 26 26  0  0  1  0  0  0  0  0999 V2000
    0.8222    1.3321    0.0545 N   0  0  0  0  0  2  0  0  0  0  0  0
    0.5387   -0.7634   -1.6348 O   0  0  0  0  0  0  0  0  0  0  0  0
    0.3777   -0.3723   -2.5161 H   0  0  0  0  0  0  0  0  0  0  0  0
    0.4213   -1.2936    1.1357 O   0  0  0  0  0  1  0  0  0  0  0  0
    0.8279    2.5413    0.6661 C   0  0  0  0  0  3  0  0  0  0  0  0
   -0.1214    2.8598    1.1207 H   0  0  0  0  0  0  0  0  0  0  0  0
    1.9723    3.3413    0.7218 C   0  0  0  0  0  0  0  0  0  0  0  0
    1.9291    4.3147    1.2302 H   0  0  0  0  0  0  0  0  0  0  0  0
    3.1520    2.8827    0.1180 C   0  0  0  0  0  0  0  0  0  0  0  0
    4.0672    3.4927    0.1374 H   0  0  0  0  0  0  0  0  0  0  0  0
    3.1428    1.6365   -0.5248 C   0  0  0  0  0  0  0  0  0  0  0  0
    4.0447    1.2535   -1.0251 H   0  0  0  0  0  0  0  0  0  0  0  0
    1.9626    0.8824   -0.5351 C   0  0  0  0  0  0  0  0  0  0  0  0
    1.8939   -0.4858   -1.1982 C   0  0  1  0  0  0  0  0  0  0  0  0
    2.5579   -0.4864   -2.0872 H   0  0  0  0  0  0  0  0  0  0  0  0
    2.3555   -1.6503   -0.2953 C   0  0  1  0  0  0  0  0  0  0  0  0
    3.3966   -1.4123    0.0157 H   0  0  0  0  0  0  0  0  0  0  0  0
    1.5443   -1.8085    0.9853 C   0  0  2  0  0  3  0  0  0  0  0  0
    2.0896   -2.6794    2.0735 C   0  0  0  0  0  0  0  0  0  0  0  0
    1.7140   -3.7149    1.9147 H   0  0  0  0  0  0  0  0  0  0  0  0
    1.7018   -2.3459    3.0542 H   0  0  0  0  0  0  0  0  0  0  0  0
    3.1946   -2.7227    2.0757 H   0  0  0  0  0  0  0  0  0  0  0  0
    2.3788   -2.9905   -1.0640 C   0  0  0  0  0  0  0  0  0  0  0  0
    3.0139   -2.8980   -1.9668 H   0  0  0  0  0  0  0  0  0  0  0  0
    1.3587   -3.2786   -1.3818 H   0  0  0  0  0  0  0  0  0  0  0  0
    2.7992   -3.8036   -0.4431 H   0  0  0  0  0  0  0  0  0  0  0  0
  1  5  1  0  0  0  0
  2 14  1  0  0  0  0
  3  2  1  0  0  0  0
  5  7  1  0  0  0  0
  5  6  1  0  0  0  0
  7  8  1  0  0  0  0
  9 10  1  0  0  0  0
  9  7  2  0  0  0  0
 11  9  1  0  0  0  0
 12 11  1  0  0  0  0
 13 11  2  0  0  0  0
 13  1  1  0  0  0  0
 14 15  1  6  0  0  0
 14 13  1  0  0  0  0
 14 16  1  0  0  0  0
 16 17  1  1  0  0  0
 16 18  1  0  0  0  0
 18  4  1  6  0  0  0
 18 19  1  0  0  0  0
 19 22  1  0  0  0  0
 19 21  1  0  0  0  0
 20 19  1  0  0  0  0
 23 26  1  0  0  0  0
 23 16  1  0  0  0  0
 24 23  1  0  0  0  0
 25 23  1  0  0  0  0
M  END
