1,3
 OpenBabel05122313063D

 46 50  0  0  0  0  0  0  0  0999 V2000
   -2.8971   -0.9231    0.2354 O   0  5  0  0  0  0  0  0  0  0  0  0
   -7.9874    2.8901   -0.3536 O   0  0  0  0  0  0  0  0  0  0  0  0
   -0.7230    0.3233   -0.2908 N   0  0  0  0  0  2  0  0  0  0  0  0
   -1.8638    1.0625   -0.3433 N   0  0  0  0  0  0  0  0  0  0  0  0
   -2.9451    0.3350   -0.0864 C   0  0  0  0  0  0  0  0  0  0  0  0
   -4.2688    0.9873   -0.1539 C   0  0  0  0  0  0  0  0  0  0  0  0
   -4.3911    2.3628   -0.4647 C   0  0  0  0  0  0  0  0  0  0  0  0
   -3.4767    2.9393   -0.6620 H   0  0  0  0  0  0  0  0  0  0  0  0
   -5.6434    2.9676   -0.5216 C   0  0  0  0  0  0  0  0  0  0  0  0
   -5.7563    4.0346   -0.7623 H   0  0  0  0  0  0  0  0  0  0  0  0
   -6.8129    2.2115   -0.2727 C   0  0  0  0  0  0  0  0  0  0  0  0
   -6.7027    0.8381    0.0343 C   0  0  0  0  0  0  0  0  0  0  0  0
   -7.5954    0.2283    0.2266 H   0  0  0  0  0  0  0  0  0  0  0  0
   -5.4371    0.2407    0.0910 C   0  0  0  0  0  0  0  0  0  0  0  0
   -5.3389   -0.8290    0.3240 H   0  0  0  0  0  0  0  0  0  0  0  0
   -9.1930    2.1846   -0.1253 C   0  0  0  0  0  0  0  0  0  0  0  0
  -10.0121    2.9179   -0.2436 H   0  0  0  0  0  0  0  0  0  0  0  0
   -9.2357    1.7573    0.9018 H   0  0  0  0  0  0  0  0  0  0  0  0
   -9.3364    1.3603   -0.8594 H   0  0  0  0  0  0  0  0  0  0  0  0
    0.3834    0.9763   -0.5802 C   0  0  0  0  0  3  0  0  0  0  0  0
    0.2387    2.0607   -0.7391 H   0  0  0  0  0  0  0  0  0  0  0  0
    1.7151    0.4109   -0.7659 C   0  0  0  0  0  0  0  0  0  0  0  0
    1.9025   -0.7614   -1.5381 C   0  0  0  0  0  0  0  0  0  0  0  0
    1.0142   -1.2683   -1.9499 H   0  0  0  0  0  0  0  0  0  0  0  0
    3.1816   -1.2508   -1.8034 C   0  0  0  0  0  0  0  0  0  0  0  0
    3.3008   -2.1527   -2.4245 H   0  0  0  0  0  0  0  0  0  0  0  0
    4.3368   -0.5977   -1.3135 C   0  0  0  0  0  0  0  0  0  0  0  0
    5.6631   -1.0821   -1.5781 C   0  0  0  0  0  0  0  0  0  0  0  0
    5.7734   -1.9950   -2.1837 H   0  0  0  0  0  0  0  0  0  0  0  0
    6.7717   -0.4297   -1.0935 C   0  0  0  0  0  0  0  0  0  0  0  0
    7.7819   -0.8131   -1.3055 H   0  0  0  0  0  0  0  0  0  0  0  0
    6.6456    0.7638   -0.3009 C   0  0  0  0  0  0  0  0  0  0  0  0
    7.7699    1.4510    0.2104 C   0  0  0  0  0  0  0  0  0  0  0  0
    8.7762    1.0601   -0.0062 H   0  0  0  0  0  0  0  0  0  0  0  0
    7.6147    2.6116    0.9806 C   0  0  0  0  0  0  0  0  0  0  0  0
    8.5031    3.1321    1.3690 H   0  0  0  0  0  0  0  0  0  0  0  0
    6.3369    3.1128    1.2602 C   0  0  0  0  0  0  0  0  0  0  0  0
    6.2178    4.0236    1.8673 H   0  0  0  0  0  0  0  0  0  0  0  0
    5.1819    2.4610    0.7701 C   0  0  0  0  0  0  0  0  0  0  0  0
    3.8549    2.9390    1.0421 C   0  0  0  0  0  0  0  0  0  0  0  0
    3.7397    3.8428    1.6607 H   0  0  0  0  0  0  0  0  0  0  0  0
    2.7449    2.2889    0.5556 C   0  0  0  0  0  0  0  0  0  0  0  0
    1.7430    2.6699    0.8013 H   0  0  0  0  0  0  0  0  0  0  0  0
    2.8592    1.1076   -0.2578 C   0  0  0  0  0  0  0  0  0  0  0  0
    4.1745    0.5973   -0.5316 C   0  0  0  0  0  0  0  0  0  0  0  0
    5.3300    1.2725   -0.0225 C   0  0  0  0  0  0  0  0  0  0  0  0
  2 11  1  0  0  0  0
  2 16  1  0  0  0  0
  4  3  1  0  0  0  0
  4  5  2  0  0  0  0
  5  1  1  0  0  0  0
  6  5  1  0  0  0  0
  6 14  1  0  0  0  0
  7  6  2  0  0  0  0
  8  7  1  0  0  0  0
  9  7  1  0  0  0  0
  9 11  2  0  0  0  0
 10  9  1  0  0  0  0
 11 12  1  0  0  0  0
 12 14  2  0  0  0  0
 12 13  1  0  0  0  0
 14 15  1  0  0  0  0
 16 18  1  0  0  0  0
 17 16  1  0  0  0  0
 19 16  1  0  0  0  0
 20  3  1  0  0  0  0
 21 20  1  0  0  0  0
 22 20  1  0  0  0  0
 22 44  1  0  0  0  0
 23 22  2  0  0  0  0
 24 23  1  0  0  0  0
 25 23  1  0  0  0  0
 25 27  2  0  0  0  0
 26 25  1  0  0  0  0
 27 45  1  0  0  0  0
 28 27  1  0  0  0  0
 28 30  2  0  0  0  0
 29 28  1  0  0  0  0
 30 32  1  0  0  0  0
 31 30  1  0  0  0  0
 32 46  2  0  0  0  0
 32 33  1  0  0  0  0
 33 35  2  0  0  0  0
 34 33  1  0  0  0  0
 35 37  1  0  0  0  0
 35 36  1  0  0  0  0
 37 38  1  0  0  0  0
 39 40  1  0  0  0  0
 39 37  2  0  0  0  0
 40 41  1  0  0  0  0
 42 43  1  0  0  0  0
 42 40  2  0  0  0  0
 44 42  1  0  0  0  0
 45 44  2  0  0  0  0
 45 46  1  0  0  0  0
 46 39  1  0  0  0  0
M  CHG  1   1  -1
M  END
