1,3
 OpenBabel05122313063D

 33 34  0  0  1  0  0  0  0  0999 V2000
    1.2717    1.2653   -0.2308 N   0  0  0  0  0  2  0  0  0  0  0  0
   -0.2521   -0.5185    0.9319 O   0  0  0  0  0  0  0  0  0  0  0  0
   -0.8290    0.0547   -1.6475 O   0  0  0  0  0  1  0  0  0  0  0  0
    2.2857    2.0408   -0.6724 C   0  0  0  0  0  3  0  0  0  0  0  0
    2.9668    1.5832   -1.4048 H   0  0  0  0  0  0  0  0  0  0  0  0
    2.4641    3.3544   -0.2306 C   0  0  0  0  0  0  0  0  0  0  0  0
    3.3056    3.9474   -0.6152 H   0  0  0  0  0  0  0  0  0  0  0  0
    1.5633    3.8819    0.7071 C   0  0  0  0  0  0  0  0  0  0  0  0
    1.6833    4.9082    1.0848 H   0  0  0  0  0  0  0  0  0  0  0  0
    0.5158    3.0732    1.1650 C   0  0  0  0  0  0  0  0  0  0  0  0
   -0.2015    3.4387    1.9141 H   0  0  0  0  0  0  0  0  0  0  0  0
    0.3972    1.7644    0.6772 C   0  0  0  0  0  0  0  0  0  0  0  0
   -0.7003    0.8102    1.0946 C   0  0  1  0  0  0  0  0  0  0  0  0
   -0.9451    0.9832    2.1639 H   0  0  0  0  0  0  0  0  0  0  0  0
   -1.9941    0.9979    0.2811 C   0  0  1  0  0  0  0  0  0  0  0  0
   -2.2899    2.0723    0.2942 H   0  0  0  0  0  0  0  0  0  0  0  0
   -1.8372    0.6020   -1.1746 C   0  0  2  0  0  3  0  0  0  0  0  0
   -3.0615    0.7902   -2.0308 C   0  0  0  0  0  0  0  0  0  0  0  0
   -2.8314    0.4790   -3.0673 H   0  0  0  0  0  0  0  0  0  0  0  0
   -3.3362    1.8681   -2.0321 H   0  0  0  0  0  0  0  0  0  0  0  0
   -4.2267   -0.0271   -1.4199 C   0  0  0  0  0  0  0  0  0  0  0  0
   -5.1434    0.1380   -2.0216 H   0  0  0  0  0  0  0  0  0  0  0  0
   -3.9818   -1.1079   -1.5017 H   0  0  0  0  0  0  0  0  0  0  0  0
   -4.4515    0.3399    0.0504 C   0  0  0  0  0  0  0  0  0  0  0  0
   -5.2564   -0.2913    0.4798 H   0  0  0  0  0  0  0  0  0  0  0  0
   -4.8096    1.3919    0.1183 H   0  0  0  0  0  0  0  0  0  0  0  0
   -3.1723    0.1768    0.8749 C   0  0  0  0  0  0  0  0  0  0  0  0
   -2.8552   -0.8854    0.9170 H   0  0  0  0  0  0  0  0  0  0  0  0
   -3.3220    0.4899    1.9276 H   0  0  0  0  0  0  0  0  0  0  0  0
    0.0967   -1.2274    2.2852 B   0  0  0  0  0  0  0  0  0  0  0  0
    1.1414   -0.4988    2.8500 F   0  0  0  0  0  0  0  0  0  0  0  0
   -1.0656   -1.1411    3.0541 F   0  0  0  0  0  0  0  0  0  0  0  0
    0.4417   -2.5182    1.9397 F   0  0  0  0  0  0  0  0  0  0  0  0
  1 12  1  0  0  0  0
  2 13  1  0  0  0  0
  2 30  1  0  0  0  0
  4  1  1  0  0  0  0
  4  6  1  0  0  0  0
  5  4  1  0  0  0  0
  6  8  2  0  0  0  0
  7  6  1  0  0  0  0
  8  9  1  0  0  0  0
  8 10  1  0  0  0  0
 10 11  1  0  0  0  0
 12 13  1  0  0  0  0
 12 10  2  0  0  0  0
 13 14  1  1  0  0  0
 15 16  1  1  0  0  0
 15 27  1  0  0  0  0
 15 13  1  0  0  0  0
 17  3  1  1  0  0  0
 17 15  1  0  0  0  0
 18 21  1  0  0  0  0
 18 17  1  0  0  0  0
 19 18  1  0  0  0  0
 20 18  1  0  0  0  0
 21 24  1  0  0  0  0
 22 21  1  0  0  0  0
 23 21  1  0  0  0  0
 24 26  1  0  0  0  0
 24 25  1  0  0  0  0
 24 27  1  0  0  0  0
 27 28  1  0  0  0  0
 27 29  1  0  0  0  0
 30 31  1  0  0  0  0
 30 32  1  0  0  0  0
 33 30  1  0  0  0  0
M  END
