1,3
 OpenBabel05122313063D

 37 37  0  0  0  0  0  0  0  0999 V2000
    1.5257   -1.5842    0.0001 N   0  0  0  0  0  2  0  0  0  0  0  0
    1.4171   -2.8045    0.0000 O   0  0  0  0  0  1  0  0  0  0  0  0
    1.5623    1.0735    0.0002 O   0  5  0  0  0  0  0  0  0  0  0  0
    2.7706   -0.9635    0.0001 C   0  0  0  0  0  0  0  0  0  0  0  0
    2.7123    0.4794    0.0002 C   0  0  0  0  0  0  0  0  0  0  0  0
    3.9711    1.1962    0.0000 C   0  0  0  0  0  0  0  0  0  0  0  0
    5.1307    0.4286   -0.0001 C   0  0  0  0  0  0  0  0  0  0  0  0
    6.0905    0.9628   -0.0001 H   0  0  0  0  0  0  0  0  0  0  0  0
    5.1856   -1.0088   -0.0001 C   0  0  0  0  0  0  0  0  0  0  0  0
    3.9857   -1.6980   -0.0001 C   0  0  0  0  0  0  0  0  0  0  0  0
    3.9177   -2.7925   -0.0001 H   0  0  0  0  0  0  0  0  0  0  0  0
    3.9869    2.7316    0.0001 C   0  0  0  0  0  0  0  0  0  0  0  0
    3.2644    3.2502    1.2666 C   0  0  0  0  0  0  0  0  0  0  0  0
    3.2661    4.3598    1.2748 H   0  0  0  0  0  0  0  0  0  0  0  0
    3.7799    2.9006    2.1843 H   0  0  0  0  0  0  0  0  0  0  0  0
    2.2151    2.9032    1.2983 H   0  0  0  0  0  0  0  0  0  0  0  0
    3.2649    3.2503   -1.2667 C   0  0  0  0  0  0  0  0  0  0  0  0
    3.7808    2.9007   -2.1843 H   0  0  0  0  0  0  0  0  0  0  0  0
    3.2667    4.3599   -1.2749 H   0  0  0  0  0  0  0  0  0  0  0  0
    2.2156    2.9034   -1.2988 H   0  0  0  0  0  0  0  0  0  0  0  0
    5.4209    3.2882    0.0004 C   0  0  0  0  0  0  0  0  0  0  0  0
    5.9903    2.9750   -0.8986 H   0  0  0  0  0  0  0  0  0  0  0  0
    5.9898    2.9753    0.8997 H   0  0  0  0  0  0  0  0  0  0  0  0
    5.3849    4.3958    0.0002 H   0  0  0  0  0  0  0  0  0  0  0  0
    6.5555   -1.7022   -0.0003 C   0  0  0  0  0  0  0  0  0  0  0  0
    7.3405   -1.2788    1.2627 C   0  0  0  0  0  0  0  0  0  0  0  0
    6.7992   -1.5761    2.1833 H   0  0  0  0  0  0  0  0  0  0  0  0
    7.5015   -0.1829    1.3038 H   0  0  0  0  0  0  0  0  0  0  0  0
    8.3384   -1.7636    1.2767 H   0  0  0  0  0  0  0  0  0  0  0  0
    7.3402   -1.2785   -1.2634 C   0  0  0  0  0  0  0  0  0  0  0  0
    8.3382   -1.7632   -1.2777 H   0  0  0  0  0  0  0  0  0  0  0  0
    7.5011   -0.1826   -1.3043 H   0  0  0  0  0  0  0  0  0  0  0  0
    6.7987   -1.5757   -2.1840 H   0  0  0  0  0  0  0  0  0  0  0  0
    6.4170   -3.2334   -0.0005 C   0  0  0  0  0  0  0  0  0  0  0  0
    5.8777   -3.5973    0.8970 H   0  0  0  0  0  0  0  0  0  0  0  0
    7.4210   -3.7029   -0.0007 H   0  0  0  0  0  0  0  0  0  0  0  0
    5.8774   -3.5971   -0.8979 H   0  0  0  0  0  0  0  0  0  0  0  0
  2  1  1  0  0  0  0
  4  1  1  0  0  0  0
  4  5  1  0  0  0  0
  5  3  1  0  0  0  0
  6 12  1  0  0  0  0
  6  5  2  0  0  0  0
  7  6  1  0  0  0  0
  8  7  1  0  0  0  0
  9  7  2  0  0  0  0
  9 10  1  0  0  0  0
 10  4  2  0  0  0  0
 11 10  1  0  0  0  0
 12 21  1  0  0  0  0
 12 13  1  0  0  0  0
 13 14  1  0  0  0  0
 13 16  1  0  0  0  0
 13 15  1  0  0  0  0
 17 12  1  0  0  0  0
 18 17  1  0  0  0  0
 19 17  1  0  0  0  0
 20 17  1  0  0  0  0
 21 23  1  0  0  0  0
 22 21  1  0  0  0  0
 24 21  1  0  0  0  0
 25  9  1  0  0  0  0
 25 26  1  0  0  0  0
 26 29  1  0  0  0  0
 26 28  1  0  0  0  0
 26 27  1  0  0  0  0
 30 25  1  0  0  0  0
 31 30  1  0  0  0  0
 32 30  1  0  0  0  0
 33 30  1  0  0  0  0
 34 25  1  0  0  0  0
 34 35  1  0  0  0  0
 36 34  1  0  0  0  0
 37 34  1  0  0  0  0
M  CHG  1   3  -1
M  END
