1,3
 OpenBabel05122313063D

 28 29  0  0  1  0  0  0  0  0999 V2000
    0.1929   -1.6366    0.0206 N   0  0  0  0  0  2  0  0  0  0  0  0
   -1.9736   -2.9712    2.5072 O   0  5  0  0  0  0  0  0  0  0  0  0
   -2.4135   -1.8627    0.5726 O   0  0  0  0  0  0  0  0  0  0  0  0
    1.8334    1.6055    0.4648 O   0  5  0  0  0  0  0  0  0  0  0  0
    2.1250    1.1942   -1.7494 O   0  0  0  0  0  0  0  0  0  0  0  0
    8.6316    0.4854   -0.1261 O   0  0  0  0  0  0  0  0  0  0  0  0
    9.3865    1.0477   -0.4026 H   0  0  0  0  0  0  0  0  0  0  0  0
    7.5940    2.2570   -1.0723 O   0  0  0  0  0  0  0  0  0  0  0  0
   -1.6426   -2.3696    1.4831 C   0  0  0  0  0  0  0  0  0  0  0  0
   -0.1441   -2.1547    1.2227 C   0  0  2  0  0  3  0  0  0  0  0  0
    1.4702   -1.3442   -0.2506 C   0  0  0  0  0  0  0  0  0  0  0  0
    1.6861   -0.9541   -1.2553 H   0  0  0  0  0  0  0  0  0  0  0  0
    2.4954   -1.4258    0.7120 C   0  0  0  0  0  0  0  0  0  0  0  0
    2.1590   -2.0239    1.9460 C   0  0  0  0  0  0  0  0  0  0  0  0
    2.9238   -2.1185    2.7328 H   0  0  0  0  0  0  0  0  0  0  0  0
    0.8384   -2.4265    2.1868 C   0  0  0  0  0  0  0  0  0  0  0  0
    0.5129   -2.8839    3.1318 H   0  0  0  0  0  0  0  0  0  0  0  0
    3.7988   -0.7859    0.4176 C   0  0  0  0  0  0  0  0  0  0  0  0
    3.8112    0.4896   -0.2233 C   0  0  0  0  0  0  0  0  0  0  0  0
    2.4837    1.1895   -0.5084 C   0  0  0  0  0  0  0  0  0  0  0  0
    5.0397    1.0897   -0.5257 C   0  0  0  0  0  0  0  0  0  0  0  0
    5.0777    2.0645   -1.0335 H   0  0  0  0  0  0  0  0  0  0  0  0
    6.2544    0.4706   -0.1707 C   0  0  0  0  0  0  0  0  0  0  0  0
    7.5231    1.1764   -0.5106 C   0  0  0  0  0  0  0  0  0  0  0  0
    6.2418   -0.7782    0.4831 C   0  0  0  0  0  0  0  0  0  0  0  0
    7.1914   -1.2594    0.7533 H   0  0  0  0  0  0  0  0  0  0  0  0
    5.0203   -1.3970    0.7679 C   0  0  0  0  0  0  0  0  0  0  0  0
    5.0072   -2.3866    1.2502 H   0  0  0  0  0  0  0  0  0  0  0  0
  1 10  1  0  0  0  0
  3  9  2  0  0  0  0
  5 20  2  0  0  0  0
  7  6  1  0  0  0  0
  8 24  2  0  0  0  0
  9  2  1  0  0  0  0
 10  9  1  1  0  0  0
 10 16  1  0  0  0  0
 11  1  1  0  0  0  0
 11 13  2  0  0  0  0
 12 11  1  0  0  0  0
 13 14  1  0  0  0  0
 14 16  2  0  0  0  0
 14 15  1  0  0  0  0
 16 17  1  0  0  0  0
 18 13  1  0  0  0  0
 18 27  1  0  0  0  0
 19 18  2  0  0  0  0
 20 19  1  0  0  0  0
 20  4  1  0  0  0  0
 21 19  1  0  0  0  0
 21 23  2  0  0  0  0
 22 21  1  0  0  0  0
 23 25  1  0  0  0  0
 24 23  1  0  0  0  0
 24  6  1  0  0  0  0
 25 26  1  0  0  0  0
 25 27  2  0  0  0  0
 27 28  1  0  0  0  0
M  CHG  2   2  -1   4  -1
M  END
