1,2
 OpenBabel05122313063D

 28 29  0  0  0  0  0  0  0  0999 V2000
    1.5668   -1.7872    0.5589 O   0  5  0  0  0  0  0  0  0  0  0  0
    0.9909    0.4724   -1.2295 N   0  0  0  0  0  2  0  0  0  0  0  0
    2.7689   -1.6527    0.0744 C   0  0  0  0  0  0  0  0  0  0  0  0
    3.7789   -2.5674    0.5493 C   0  0  0  0  0  0  0  0  0  0  0  0
    2.7704    1.1060   -2.0896 H   0  0  0  0  0  0  0  0  0  0  0  0
    5.0839   -2.4683    0.0724 C   0  0  0  0  0  0  0  0  0  0  0  0
    5.8362   -3.1820    0.4467 H   0  0  0  0  0  0  0  0  0  0  0  0
    5.4717   -1.4840   -0.8712 C   0  0  0  0  0  0  0  0  0  0  0  0
    6.5119   -1.4333   -1.2236 H   0  0  0  0  0  0  0  0  0  0  0  0
    4.5223   -0.5906   -1.3363 C   0  0  0  0  0  0  0  0  0  0  0  0
    4.7997    0.1867   -2.0668 H   0  0  0  0  0  0  0  0  0  0  0  0
    3.1642   -0.6422   -0.8928 C   0  0  0  0  0  0  0  0  0  0  0  0
    3.3586   -3.6038    1.5521 C   0  0  0  0  0  0  0  0  0  0  0  0
    2.5505   -4.2457    1.1433 H   0  0  0  0  0  0  0  0  0  0  0  0
    2.9288   -3.1278    2.4581 H   0  0  0  0  0  0  0  0  0  0  0  0
    4.2084   -4.2457    1.8532 H   0  0  0  0  0  0  0  0  0  0  0  0
    2.2860    0.3554   -1.4286 C   0  0  0  0  0  3  0  0  0  0  0  0
    0.2786    1.6084   -1.6690 C   0  0  0  0  0  0  0  0  0  0  0  0
    0.8415    2.9041   -1.6597 C   0  0  0  0  0  0  0  0  0  0  0  0
    1.8695    3.0491   -1.2967 H   0  0  0  0  0  0  0  0  0  0  0  0
    0.0670    4.0078   -2.0402 C   0  0  0  0  0  0  0  0  0  0  0  0
    0.5108    5.0147   -2.0129 H   0  0  0  0  0  0  0  0  0  0  0  0
   -1.2735    3.8398   -2.4233 C   0  0  0  0  0  0  0  0  0  0  0  0
   -1.8799    4.7114   -2.7116 H   0  0  0  0  0  0  0  0  0  0  0  0
   -1.8405    2.5535   -2.4192 C   0  0  0  0  0  0  0  0  0  0  0  0
   -2.8921    2.4110   -2.7105 H   0  0  0  0  0  0  0  0  0  0  0  0
   -1.0752    1.4449   -2.0400 C   0  0  0  0  0  0  0  0  0  0  0  0
   -1.5107    0.4335   -2.0259 H   0  0  0  0  0  0  0  0  0  0  0  0
  3  4  1  0  0  0  0
  3  1  1  0  0  0  0
  4 13  1  0  0  0  0
  5 17  1  0  0  0  0
  6  7  1  0  0  0  0
  6  4  2  0  0  0  0
  8  6  1  0  0  0  0
  9  8  1  0  0  0  0
 10 12  1  0  0  0  0
 10  8  2  0  0  0  0
 11 10  1  0  0  0  0
 12  3  2  0  0  0  0
 13 16  1  0  0  0  0
 13 15  1  0  0  0  0
 14 13  1  0  0  0  0
 17  2  1  0  0  0  0
 17 12  1  0  0  0  0
 18 19  1  0  0  0  0
 18  2  1  0  0  0  0
 19 20  1  0  0  0  0
 21 22  1  0  0  0  0
 21 19  2  0  0  0  0
 23 25  2  0  0  0  0
 23 21  1  0  0  0  0
 24 23  1  0  0  0  0
 25 27  1  0  0  0  0
 26 25  1  0  0  0  0
 27 28  1  0  0  0  0
 27 18  2  0  0  0  0
M  CHG  1   1  -1
M  END
