1,2
 OpenBabel05122313063D

 36 40  0  0  0  0  0  0  0  0999 V2000
   -1.2063   -2.4152   -0.6377 O   0  5  0  0  0  0  0  0  0  0  0  0
   -0.0208   -0.0885    0.0114 N   0  0  0  0  0  2  0  0  0  0  0  0
    2.9601   -2.1410   -0.8144 N   0  0  0  0  0  2  0  0  0  0  0  0
    4.2095    0.2681    0.1071 N   0  0  0  0  0  0  0  0  0  0  0  0
    0.5846    1.0220    0.4607 C   0  0  0  0  0  0  0  0  0  0  0  0
   -0.0647    1.8274    0.8242 H   0  0  0  0  0  0  0  0  0  0  0  0
    1.9823    1.1548    0.5067 C   0  0  0  0  0  0  0  0  0  0  0  0
    2.4170    2.0826    0.9017 H   0  0  0  0  0  0  0  0  0  0  0  0
    2.8178    0.1125    0.0895 C   0  0  0  0  0  0  0  0  0  0  0  0
    2.2052   -1.1071   -0.3741 C   0  0  0  0  0  0  0  0  0  0  0  0
    2.3102   -3.2450   -1.1979 C   0  0  0  0  0  0  0  0  0  0  0  0
    2.9479   -4.0733   -1.5574 H   0  0  0  0  0  0  0  0  0  0  0  0
    0.9146   -3.4301   -1.1678 C   0  0  0  0  0  0  0  0  0  0  0  0
    0.4596   -4.3825   -1.4747 H   0  0  0  0  0  0  0  0  0  0  0  0
    0.0884   -2.3700   -0.7350 C   0  0  0  0  0  0  0  0  0  0  0  0
    0.7737   -1.1525   -0.3621 C   0  0  0  0  0  0  0  0  0  0  0  0
    4.8948    1.3801   -0.4208 C   0  0  0  0  0  0  0  0  0  0  0  0
    4.4000    2.4741   -1.1485 C   0  0  0  0  0  0  0  0  0  0  0  0
    3.3294    2.5787   -1.3727 H   0  0  0  0  0  0  0  0  0  0  0  0
    5.3226    3.4298   -1.5990 C   0  0  0  0  0  0  0  0  0  0  0  0
    4.9577    4.2966   -2.1701 H   0  0  0  0  0  0  0  0  0  0  0  0
    6.7042    3.2974   -1.3404 C   0  0  0  0  0  0  0  0  0  0  0  0
    7.4009    4.0657   -1.7072 H   0  0  0  0  0  0  0  0  0  0  0  0
    7.1946    2.1926   -0.6324 C   0  0  0  0  0  0  0  0  0  0  0  0
    8.2731    2.0793   -0.4457 H   0  0  0  0  0  0  0  0  0  0  0  0
    6.2899    1.2210   -0.1683 C   0  0  0  0  0  0  0  0  0  0  0  0
    6.4488   -0.0253    0.5586 C   0  0  0  0  0  0  0  0  0  0  0  0
    7.5654   -0.6784    1.1126 C   0  0  0  0  0  0  0  0  0  0  0  0
    8.5720   -0.2486    0.9986 H   0  0  0  0  0  0  0  0  0  0  0  0
    7.3714   -1.8711    1.8183 C   0  0  0  0  0  0  0  0  0  0  0  0
    8.2336   -2.3951    2.2568 H   0  0  0  0  0  0  0  0  0  0  0  0
    6.0734   -2.4042    1.9834 C   0  0  0  0  0  0  0  0  0  0  0  0
    5.9397   -3.3372    2.5513 H   0  0  0  0  0  0  0  0  0  0  0  0
    4.9465   -1.7753    1.4381 C   0  0  0  0  0  0  0  0  0  0  0  0
    3.9446   -2.2015    1.5677 H   0  0  0  0  0  0  0  0  0  0  0  0
    5.1494   -0.5929    0.7098 C   0  0  0  0  0  0  0  0  0  0  0  0
  2  5  1  0  0  0  0
  3 10  1  0  0  0  0
  4 36  1  0  0  0  0
  5  7  2  0  0  0  0
  5  6  1  0  0  0  0
  7  8  1  0  0  0  0
  9  4  1  0  0  0  0
  9  7  1  0  0  0  0
 10 16  1  0  0  0  0
 10  9  2  0  0  0  0
 11 13  2  0  0  0  0
 11  3  1  0  0  0  0
 12 11  1  0  0  0  0
 13 15  1  0  0  0  0
 14 13  1  0  0  0  0
 15  1  1  0  0  0  0
 15 16  2  0  0  0  0
 16  2  1  0  0  0  0
 17 26  1  0  0  0  0
 17  4  1  0  0  0  0
 18 17  2  0  0  0  0
 19 18  1  0  0  0  0
 20 22  2  0  0  0  0
 20 18  1  0  0  0  0
 21 20  1  0  0  0  0
 22 24  1  0  0  0  0
 23 22  1  0  0  0  0
 24 25  1  0  0  0  0
 24 26  2  0  0  0  0
 26 27  1  0  0  0  0
 27 36  2  0  0  0  0
 27 28  1  0  0  0  0
 28 30  2  0  0  0  0
 29 28  1  0  0  0  0
 30 32  1  0  0  0  0
 30 31  1  0  0  0  0
 32 33  1  0  0  0  0
 34 35  1  0  0  0  0
 34 32  2  0  0  0  0
 36 34  1  0  0  0  0
M  CHG  1   1  -1
M  END
