2,3
 OpenBabel05122313063D

 23 26  0  0  1  0  0  0  0  0999 V2000
   -5.3373    2.2801   -0.6155 O   0  0  0  0  0  0  0  0  0  0  0  0
   -1.6649   -0.7703   -0.3583 N   0  0  0  0  0  2  0  0  0  0  0  0
   -0.6362    1.7896    0.2629 O   0  0  0  0  0  1  0  0  0  0  0  0
   -3.8416   -2.0771   -1.6430 O   0  0  0  0  0  0  0  0  0  0  0  0
   -2.8494   -0.2293   -0.5422 C   0  0  1  0  0  3  0  0  0  0  0  0
   -2.8929    1.2086   -0.6110 C   0  0  2  0  0  0  0  0  0  0  0  0
   -3.8611    2.3342   -0.6300 C   0  0  1  0  0  0  0  0  0  0  0  0
   -4.0219   -1.1628   -0.8456 C   0  0  0  0  0  0  0  0  0  0  0  0
   -1.8638    1.9932    0.0205 C   0  0  1  0  0  3  0  0  0  0  0  0
   -4.7918    2.9581   -1.6038 C   0  0  0  0  0  2  0  0  0  0  0  0
   -3.0256    2.6314    0.5584 C   0  0  2  0  0  3  0  0  0  0  0  0
   -5.3557   -0.1447    1.0502 C   0  0  0  0  0  0  0  0  0  0  0  0
   -6.5638   -0.0219    1.7477 C   0  0  0  0  0  0  0  0  0  0  0  0
   -7.7119   -0.6839    1.2845 C   0  0  0  0  0  0  0  0  0  0  0  0
   -7.6535   -1.4841    0.1279 C   0  0  0  0  0  0  0  0  0  0  0  0
   -6.4474   -1.6234   -0.5629 C   0  0  0  0  0  0  0  0  0  0  0  0
   -5.2923   -0.9439   -0.1133 C   0  0  0  0  0  0  0  0  0  0  0  0
   -1.6465   -1.7969   -0.4762 H   0  0  0  0  0  0  0  0  0  0  0  0
   -4.4628    0.3836    1.4209 H   0  0  0  0  0  0  0  0  0  0  0  0
   -6.6099    0.5996    2.6540 H   0  0  0  0  0  0  0  0  0  0  0  0
   -8.6625   -0.5768    1.8290 H   0  0  0  0  0  0  0  0  0  0  0  0
   -8.5563   -2.0012   -0.2301 H   0  0  0  0  0  0  0  0  0  0  0  0
   -6.3656   -2.2533   -1.4609 H   0  0  0  0  0  0  0  0  0  0  0  0
  4  8  2  0  0  0  0
  5  8  1  6  0  0  0
  5  2  1  0  0  0  0
  6  5  1  1  0  0  0
  6  9  1  0  0  0  0
  6 11  1  0  0  0  0
  7 10  1  6  0  0  0
  7  1  1  0  0  0  0
  7  6  1  0  0  0  0
  7 11  1  0  0  0  0
  8 17  1  0  0  0  0
  9  3  1  1  0  0  0
  9 11  1  0  0  0  0
 10  1  1  0  0  0  0
 12 19  1  0  0  0  0
 12 13  1  0  0  0  0
 13 20  1  0  0  0  0
 14 13  2  0  0  0  0
 14 21  1  0  0  0  0
 15 14  1  0  0  0  0
 16 17  1  0  0  0  0
 16 15  2  0  0  0  0
 17 12  2  0  0  0  0
 18  2  1  0  0  0  0
 22 15  1  0  0  0  0
 23 16  1  0  0  0  0
M  END
