1,2
 OpenBabel05122313063D

 21 21  0  0  0  0  0  0  0  0999 V2000
    0.6128   -1.3820    0.1072 O   0  5  0  0  0  0  0  0  0  0  0  0
    0.5860    1.4205   -0.2105 N   0  0  0  0  0  2  0  0  0  0  0  0
    0.2704    2.3967   -0.2571 H   0  0  0  0  0  0  0  0  0  0  0  0
    1.9136   -1.2167   -0.0065 C   0  0  0  0  0  0  0  0  0  0  0  0
    2.5981    0.0438   -0.1891 C   0  0  0  0  0  0  0  0  0  0  0  0
    4.0247    0.0202   -0.3005 C   0  0  0  0  0  3  0  0  0  0  0  0
    4.5642    0.9637   -0.4544 H   0  0  0  0  0  0  0  0  0  0  0  0
    4.7570   -1.1537   -0.2295 C   0  0  0  0  0  0  0  0  0  0  0  0
    5.8514   -1.1308   -0.3239 H   0  0  0  0  0  0  0  0  0  0  0  0
    4.0768   -2.3797   -0.0393 C   0  0  0  0  0  0  0  0  0  0  0  0
    4.6441   -3.3211    0.0202 H   0  0  0  0  0  0  0  0  0  0  0  0
    2.6940   -2.4091    0.0675 C   0  0  0  0  0  0  0  0  0  0  0  0
    2.1526   -3.3548    0.2121 H   0  0  0  0  0  0  0  0  0  0  0  0
    1.9007    1.3106   -0.2545 C   0  0  0  0  0  0  0  0  0  0  0  0
    2.6763    2.6151   -0.3153 C   0  0  0  0  0  0  0  0  0  0  0  0
    1.9997    3.4039   -0.7069 H   0  0  0  0  0  0  0  0  0  0  0  0
    3.4955    2.5298   -1.0561 H   0  0  0  0  0  0  0  0  0  0  0  0
    3.2318    3.0420    1.0534 C   0  0  0  0  0  0  0  0  0  0  0  0
    2.4165    3.1649    1.7940 H   0  0  0  0  0  0  0  0  0  0  0  0
    3.7631    4.0097    0.9665 H   0  0  0  0  0  0  0  0  0  0  0  0
    3.9422    2.2950    1.4569 H   0  0  0  0  0  0  0  0  0  0  0  0
  3  2  1  0  0  0  0
  4 12  2  0  0  0  0
  4  1  1  0  0  0  0
  5  4  1  0  0  0  0
  6  8  1  0  0  0  0
  6  5  1  0  0  0  0
  7  6  1  0  0  0  0
  8 10  2  0  0  0  0
  9  8  1  0  0  0  0
 10 11  1  0  0  0  0
 10 12  1  0  0  0  0
 12 13  1  0  0  0  0
 14  2  1  0  0  0  0
 14  5  2  0  0  0  0
 15 14  1  0  0  0  0
 15 18  1  0  0  0  0
 16 15  1  0  0  0  0
 17 15  1  0  0  0  0
 18 21  1  0  0  0  0
 18 19  1  0  0  0  0
 20 18  1  0  0  0  0
M  CHG  1   1  -1
M  END
