2,3
 OpenBabel05122313063D

  8  7  0  0  0  0  0  0  0  0999 V2000
   -0.6449    1.4844    2.3432 O   0  0  0  0  0  1  0  0  0  0  0  0
    1.3692    1.0502   -0.7985 O   0  5  0  0  0  0  0  0  0  0  0  0
   -0.0128    1.4435    1.2980 N   0  0  0  0  0  2  0  0  0  0  0  0
    0.7394    2.4782    0.9519 N   0  0  0  0  0  0  0  0  0  0  0  0
    2.1828    3.1718   -0.7085 N   0  0  0  0  0  0  0  0  0  0  0  0
    2.5870    3.0545   -1.6359 H   0  0  0  0  0  0  0  0  0  0  0  0
    2.1138    4.0992   -0.2939 H   0  0  0  0  0  0  0  0  0  0  0  0
    1.4082    2.1798   -0.2122 C   0  0  0  0  0  0  0  0  0  0  0  0
  2  8  1  0  0  0  0
  3  1  1  0  0  0  0
  4  3  1  0  0  0  0
  5  7  1  0  0  0  0
  5  8  1  0  0  0  0
  6  5  1  0  0  0  0
  8  4  2  0  0  0  0
M  CHG  1   2  -1
M  END
