1,3
 OpenBabel05122313063D

 36 37  0  0  1  0  0  0  0  0999 V2000
    1.8360   -0.4869    1.3864 O   0  5  0  0  0  0  0  0  0  0  0  0
   -5.4939   -1.1568   -1.8931 O   0  0  0  0  0  0  0  0  0  0  0  0
   -0.1774   -1.4309   -0.1333 N   0  0  0  0  0  2  0  0  0  0  0  0
    1.5148   -3.9960   -2.0353 F   0  0  0  0  0  0  0  0  0  0  0  0
    0.2665   -2.4582   -2.9365 F   0  0  0  0  0  0  0  0  0  0  0  0
   -0.5988   -3.9208   -1.5559 F   0  0  0  0  0  0  0  0  0  0  0  0
    4.0752   -1.1497    1.0887 C   0  0  0  0  0  0  0  0  0  0  0  0
    5.0992   -1.7411    0.3161 C   0  0  0  0  0  0  0  0  0  0  0  0
    4.8492   -2.3225   -0.5824 H   0  0  0  0  0  0  0  0  0  0  0  0
    6.4422   -1.5626    0.6673 C   0  0  0  0  0  0  0  0  0  0  0  0
    7.2317   -2.0205    0.0529 H   0  0  0  0  0  0  0  0  0  0  0  0
    6.7820   -0.7927    1.7935 C   0  0  0  0  0  0  0  0  0  0  0  0
    7.8391   -0.6567    2.0687 H   0  0  0  0  0  0  0  0  0  0  0  0
    5.7694   -0.1963    2.5648 C   0  0  0  0  0  0  0  0  0  0  0  0
    6.0307    0.4084    3.4464 H   0  0  0  0  0  0  0  0  0  0  0  0
    4.4259   -0.3688    2.2142 C   0  0  0  0  0  0  0  0  0  0  0  0
    3.6196    0.1023    2.7950 H   0  0  0  0  0  0  0  0  0  0  0  0
    2.6392   -1.2793    0.7461 C   0  0  0  0  0  0  0  0  0  0  0  0
    2.1476   -2.1672   -0.2118 C   0  0  0  0  0  0  0  0  0  0  0  0
    2.8396   -2.8502   -0.7110 H   0  0  0  0  0  0  0  0  0  0  0  0
    0.7891   -2.1906   -0.6251 C   0  0  2  0  0  3  0  0  0  0  0  0
    0.4821   -3.1564   -1.7919 C   0  0  0  0  0  0  0  0  0  0  0  0
   -1.5128   -1.4750   -0.6454 C   0  0  0  0  0  0  0  0  0  0  0  0
   -2.5166   -2.1334    0.0889 C   0  0  0  0  0  0  0  0  0  0  0  0
   -2.2345   -2.6693    1.0056 H   0  0  0  0  0  0  0  0  0  0  0  0
   -3.8567   -2.0696   -0.3096 C   0  0  0  0  0  0  0  0  0  0  0  0
   -4.6161   -2.5785    0.2978 H   0  0  0  0  0  0  0  0  0  0  0  0
   -4.2179   -1.3261   -1.4528 C   0  0  0  0  0  0  0  0  0  0  0  0
   -3.2109   -0.6842   -2.2024 C   0  0  0  0  0  0  0  0  0  0  0  0
   -3.5056   -0.1073   -3.0907 H   0  0  0  0  0  0  0  0  0  0  0  0
   -1.8751   -0.7548   -1.8027 C   0  0  0  0  0  0  0  0  0  0  0  0
   -1.1106   -0.2136   -2.3749 H   0  0  0  0  0  0  0  0  0  0  0  0
   -6.5438   -1.7426   -1.1448 C   0  0  0  0  0  0  0  0  0  0  0  0
   -6.4549   -2.8515   -1.1040 H   0  0  0  0  0  0  0  0  0  0  0  0
   -7.4828   -1.4781   -1.6656 H   0  0  0  0  0  0  0  0  0  0  0  0
   -6.5811   -1.3426   -0.1072 H   0  0  0  0  0  0  0  0  0  0  0  0
  2 28  1  0  0  0  0
  2 33  1  0  0  0  0
  4 22  1  0  0  0  0
  5 22  1  0  0  0  0
  7 16  1  0  0  0  0
  8 10  1  0  0  0  0
  8  7  2  0  0  0  0
  9  8  1  0  0  0  0
 10 12  2  0  0  0  0
 11 10  1  0  0  0  0
 12 13  1  0  0  0  0
 12 14  1  0  0  0  0
 14 15  1  0  0  0  0
 16 14  2  0  0  0  0
 16 17  1  0  0  0  0
 18  7  1  0  0  0  0
 18  1  1  0  0  0  0
 19 18  2  0  0  0  0
 20 19  1  0  0  0  0
 21 19  1  6  0  0  0
 21  3  1  0  0  0  0
 22  6  1  0  0  0  0
 22 21  1  0  0  0  0
 23  3  1  0  0  0  0
 23 24  1  0  0  0  0
 24 25  1  0  0  0  0
 26 24  2  0  0  0  0
 26 27  1  0  0  0  0
 28 26  1  0  0  0  0
 29 31  1  0  0  0  0
 29 28  2  0  0  0  0
 30 29  1  0  0  0  0
 31 23  2  0  0  0  0
 32 31  1  0  0  0  0
 33 34  1  0  0  0  0
 33 36  1  0  0  0  0
 35 33  1  0  0  0  0
M  CHG  1   1  -1
M  END
