1,2
 OpenBabel05122313063D

 48 49  0  0  1  0  0  0  0  0999 V2000
    1.0454   -0.7951   -0.5521 O   0  0  0  0  0  1  0  0  0  0  0  0
   -1.2039    1.0922    0.1655 N   0  0  0  0  0  2  0  0  0  0  0  0
    1.9592    0.2411   -0.7556 C   0  0  2  0  0  0  0  0  0  0  0  0
    3.4435   -0.1981   -0.5750 C   0  0  0  0  0  0  0  0  0  0  0  0
    4.1354    1.1807   -0.5403 C   0  0  0  0  0  0  0  0  0  0  0  0
    3.2183    2.0726    0.3213 C   0  0  0  0  0  0  0  0  0  0  0  0
    1.7731    1.5485    0.0989 C   0  0  2  0  0  0  0  0  0  0  0  0
    0.9954    1.3835    1.4208 C   0  0  0  0  0  0  0  0  0  0  0  0
    3.8964   -1.0747   -1.7460 C   0  0  0  0  0  0  0  0  0  0  0  0
    3.6434   -0.9650    0.7415 C   0  0  0  0  0  0  0  0  0  0  0  0
   -0.3719    0.7410    1.2536 C   0  0  2  0  0  3  0  0  0  0  0  0
   -0.6653   -0.4664    1.9175 C   0  0  1  0  0  3  0  0  0  0  0  0
   -1.7279   -1.3627    1.5302 C   0  0  0  0  0  3  0  0  0  0  0  0
   -1.5195   -2.6366    2.2298 C   0  0  0  0  0  0  0  0  0  0  0  0
   -0.3759   -2.5990    2.9620 C   0  0  0  0  0  0  0  0  0  0  0  0
    0.2963   -1.2592    2.7980 C   0  0  0  0  0  0  0  0  0  0  0  0
   -1.9905    2.3374    0.0868 C   0  0  0  0  0  0  0  0  0  0  0  0
   -2.2081    2.7164   -1.3853 C   0  0  0  0  0  0  0  0  0  0  0  0
   -1.2906    3.5094    0.8016 C   0  0  0  0  0  0  0  0  0  0  0  0
   -3.3473    2.0800    0.7789 C   0  0  0  0  0  0  0  0  0  0  0  0
    1.8786    0.5623   -1.8263 H   0  0  0  0  0  0  0  0  0  0  0  0
    5.1757    1.1278   -0.1583 H   0  0  0  0  0  0  0  0  0  0  0  0
    4.1926    1.5791   -1.5765 H   0  0  0  0  0  0  0  0  0  0  0  0
    3.3245    3.1473    0.0719 H   0  0  0  0  0  0  0  0  0  0  0  0
    3.4915    1.9762    1.3934 H   0  0  0  0  0  0  0  0  0  0  0  0
    1.2007    2.2664   -0.5237 H   0  0  0  0  0  0  0  0  0  0  0  0
    1.5901    0.7718    2.1259 H   0  0  0  0  0  0  0  0  0  0  0  0
    0.9184    2.3847    1.8957 H   0  0  0  0  0  0  0  0  0  0  0  0
    3.7819   -0.5415   -2.7129 H   0  0  0  0  0  0  0  0  0  0  0  0
    3.2847   -1.9990   -1.7924 H   0  0  0  0  0  0  0  0  0  0  0  0
    4.9606   -1.3718   -1.6438 H   0  0  0  0  0  0  0  0  0  0  0  0
    3.4051   -0.3497    1.6311 H   0  0  0  0  0  0  0  0  0  0  0  0
    4.6966   -1.2993    0.8400 H   0  0  0  0  0  0  0  0  0  0  0  0
    2.9909   -1.8604    0.7631 H   0  0  0  0  0  0  0  0  0  0  0  0
   -2.7240   -1.0013    1.2265 H   0  0  0  0  0  0  0  0  0  0  0  0
   -2.2041   -3.4936    2.1509 H   0  0  0  0  0  0  0  0  0  0  0  0
    0.0379   -3.4163    3.5681 H   0  0  0  0  0  0  0  0  0  0  0  0
    1.2918   -1.3572    2.3114 H   0  0  0  0  0  0  0  0  0  0  0  0
    0.4777   -0.7427    3.7677 H   0  0  0  0  0  0  0  0  0  0  0  0
   -1.2352    2.8268   -1.9046 H   0  0  0  0  0  0  0  0  0  0  0  0
   -2.7550    3.6777   -1.4573 H   0  0  0  0  0  0  0  0  0  0  0  0
   -2.8007    1.9510   -1.9183 H   0  0  0  0  0  0  0  0  0  0  0  0
   -1.1406    3.2918    1.8768 H   0  0  0  0  0  0  0  0  0  0  0  0
   -1.9186    4.4193    0.7252 H   0  0  0  0  0  0  0  0  0  0  0  0
   -0.3077    3.7366    0.3442 H   0  0  0  0  0  0  0  0  0  0  0  0
   -3.1885    1.7724    1.8321 H   0  0  0  0  0  0  0  0  0  0  0  0
   -3.8982    1.2685    0.2639 H   0  0  0  0  0  0  0  0  0  0  0  0
   -3.9810    2.9908    0.7736 H   0  0  0  0  0  0  0  0  0  0  0  0
  3 21  1  6  0  0  0
  3  4  1  0  0  0  0
  3  1  1  0  0  0  0
  3  7  1  0  0  0  0
  4  5  1  0  0  0  0
  4 10  1  0  0  0  0
  5 22  1  0  0  0  0
  5  6  1  0  0  0  0
  6 25  1  0  0  0  0
  7 26  1  6  0  0  0
  7  6  1  0  0  0  0
  7  8  1  0  0  0  0
  8 28  1  0  0  0  0
  8 27  1  0  0  0  0
  9 31  1  0  0  0  0
  9  4  1  0  0  0  0
 10 34  1  0  0  0  0
 10 33  1  0  0  0  0
 10 32  1  0  0  0  0
 11  2  1  6  0  0  0
 11  8  1  0  0  0  0
 12 11  1  6  0  0  0
 12 16  1  0  0  0  0
 13 12  1  0  0  0  0
 13 14  1  0  0  0  0
 14 15  2  0  0  0  0
 15 37  1  0  0  0  0
 16 15  1  0  0  0  0
 16 39  1  0  0  0  0
 17  2  1  0  0  0  0
 17 20  1  0  0  0  0
 17 19  1  0  0  0  0
 18 17  1  0  0  0  0
 19 43  1  0  0  0  0
 20 46  1  0  0  0  0
 23  5  1  0  0  0  0
 24  6  1  0  0  0  0
 29  9  1  0  0  0  0
 30  9  1  0  0  0  0
 35 13  1  0  0  0  0
 36 14  1  0  0  0  0
 38 16  1  0  0  0  0
 40 18  1  0  0  0  0
 41 18  1  0  0  0  0
 42 18  1  0  0  0  0
 44 19  1  0  0  0  0
 45 19  1  0  0  0  0
 47 20  1  0  0  0  0
 48 20  1  0  0  0  0
M  END
