1,3
 OpenBabel05122313063D

 29 30  0  0  0  0  0  0  0  0999 V2000
   -1.7019    1.3463    0.3983 O   0  5  0  0  0  0  0  0  0  0  0  0
   -3.7146    2.7972    1.1635 O   0  0  0  0  0  0  0  0  0  0  0  0
   -0.7551   -0.8542   -1.2967 N   0  0  0  0  0  2  0  0  0  0  0  0
   -2.8401    1.0469   -0.1466 C   0  0  0  0  0  0  0  0  0  0  0  0
   -3.9974    1.8299    0.2523 C   0  0  0  0  0  0  0  0  0  0  0  0
   -5.2595    1.5769   -0.2822 C   0  0  0  0  0  0  0  0  0  0  0  0
   -6.1204    2.1856    0.0272 H   0  0  0  0  0  0  0  0  0  0  0  0
   -5.4553    0.5345   -1.2272 C   0  0  0  0  0  0  0  0  0  0  0  0
   -6.4612    0.3527   -1.6321 H   0  0  0  0  0  0  0  0  0  0  0  0
   -4.3838   -0.2405   -1.6257 C   0  0  0  0  0  0  0  0  0  0  0  0
   -4.5230   -1.0548   -2.3541 H   0  0  0  0  0  0  0  0  0  0  0  0
   -3.0661   -0.0125   -1.1086 C   0  0  0  0  0  0  0  0  0  0  0  0
   -4.7735    3.6167    1.6075 C   0  0  0  0  0  0  0  0  0  0  0  0
   -5.2353    4.1914    0.7718 H   0  0  0  0  0  0  0  0  0  0  0  0
   -4.3386    4.3276    2.3346 H   0  0  0  0  0  0  0  0  0  0  0  0
   -5.5743    3.0280    2.1119 H   0  0  0  0  0  0  0  0  0  0  0  0
   -2.0409   -0.9000   -1.5721 C   0  0  0  0  0  3  0  0  0  0  0  0
   -2.3895   -1.7124   -2.2451 H   0  0  0  0  0  0  0  0  0  0  0  0
    0.1177   -1.8962   -1.6763 C   0  0  0  0  0  0  0  0  0  0  0  0
    1.4596   -1.5666   -1.9735 C   0  0  0  0  0  0  0  0  0  0  0  0
    1.7638   -0.5083   -1.9512 H   0  0  0  0  0  0  0  0  0  0  0  0
    2.3775   -2.5736   -2.2928 C   0  0  0  0  0  0  0  0  0  0  0  0
    3.4179   -2.3021   -2.5276 H   0  0  0  0  0  0  0  0  0  0  0  0
    1.9768   -3.9208   -2.3093 C   0  0  0  0  0  0  0  0  0  0  0  0
    2.7028   -4.7116   -2.5506 H   0  0  0  0  0  0  0  0  0  0  0  0
    0.6481   -4.2529   -1.9990 C   0  0  0  0  0  0  0  0  0  0  0  0
    0.3327   -5.3073   -1.9821 H   0  0  0  0  0  0  0  0  0  0  0  0
   -0.2789   -3.2522   -1.6790 C   0  0  0  0  0  0  0  0  0  0  0  0
   -1.3004   -3.5223   -1.3737 H   0  0  0  0  0  0  0  0  0  0  0  0
  2 13  1  0  0  0  0
  4  5  1  0  0  0  0
  4  1  1  0  0  0  0
  5  2  1  0  0  0  0
  6  7  1  0  0  0  0
  6  5  2  0  0  0  0
  8  6  1  0  0  0  0
  9  8  1  0  0  0  0
 10  8  2  0  0  0  0
 10 12  1  0  0  0  0
 11 10  1  0  0  0  0
 12  4  2  0  0  0  0
 13 16  1  0  0  0  0
 13 15  1  0  0  0  0
 14 13  1  0  0  0  0
 17  3  1  0  0  0  0
 17 12  1  0  0  0  0
 18 17  1  0  0  0  0
 19  3  1  0  0  0  0
 20 21  1  0  0  0  0
 20 19  2  0  0  0  0
 22 20  1  0  0  0  0
 23 22  1  0  0  0  0
 24 22  2  0  0  0  0
 24 26  1  0  0  0  0
 25 24  1  0  0  0  0
 26 27  1  0  0  0  0
 26 28  2  0  0  0  0
 28 19  1  0  0  0  0
 28 29  1  0  0  0  0
M  CHG  1   1  -1
M  END
