1,6
 OpenBabel05122313063D

 15 15  0  0  1  0  0  0  0  0999 V2000
    0.8782    1.8602   -0.1650 O   0  5  0  0  0  0  0  0  0  0  0  0
   -0.9187    3.1976   -0.4029 O   0  0  0  0  0  0  0  0  0  0  0  0
   -5.3815    0.7052   -0.2259 O   0  0  0  0  0  0  0  0  0  0  0  0
   -5.3443   -1.4756    0.0327 O   0  0  0  0  0  0  0  0  0  0  0  0
   -4.8235   -0.3722   -0.0737 N   0  0  0  0  0  0  0  0  0  0  0  0
   -0.5655   -0.2986    0.1166 N   0  0  0  0  0  2  0  0  0  0  0  0
   -0.4235    2.1014   -0.2284 C   0  0  0  0  0  0  0  0  0  0  0  0
   -1.2570    0.8520   -0.0695 C   0  0  1  0  0  3  0  0  0  0  0  0
   -2.6542    0.8772   -0.1342 C   0  0  0  0  0  0  0  0  0  0  0  0
   -3.3222   -0.3392   -0.0100 C   0  0  0  0  0  0  0  0  0  0  0  0
   -2.6219   -1.5371    0.1680 C   0  0  0  0  0  0  0  0  0  0  0  0
   -1.2273   -1.4751    0.2303 C   0  0  0  0  0  0  0  0  0  0  0  0
   -3.1806    1.8316   -0.2831 H   0  0  0  0  0  0  0  0  0  0  0  0
   -3.1663   -2.4874    0.2565 H   0  0  0  0  0  0  0  0  0  0  0  0
   -0.6201   -2.3803    0.3694 H   0  0  0  0  0  0  0  0  0  0  0  0
  2  7  2  0  0  0  0
  3  5  2  0  0  0  0
  5 10  1  0  0  0  0
  5  4  2  0  0  0  0
  6 12  1  0  0  0  0
  7  1  1  0  0  0  0
  8  7  1  6  0  0  0
  8  6  1  0  0  0  0
  9  8  1  0  0  0  0
  9 10  2  0  0  0  0
 10 11  1  0  0  0  0
 11 12  2  0  0  0  0
 11 14  1  0  0  0  0
 12 15  1  0  0  0  0
 13  9  1  0  0  0  0
M  CHG  1   1  -1
M  END
