1,4
 OpenBabel05122313063D

 29 30  0  0  1  0  0  0  0  0999 V2000
    1.8291    0.5017   -0.3161 O   0  0  0  0  0  1  0  0  0  0  0  0
    2.1268   -1.6532    0.2566 N   0  0  0  0  0  0  0  0  0  0  0  0
    2.7049   -2.4968    0.2271 H   0  0  0  0  0  0  0  0  0  0  0  0
    0.7545   -1.7626    0.1301 N   0  0  0  0  0  2  0  0  0  0  0  0
    2.6414   -0.4245   -0.0487 C   0  0  1  0  0  3  0  0  0  0  0  0
    4.0979   -0.2314   -0.0736 C   0  0  0  0  0  0  0  0  0  0  0  0
    4.6172    0.8892   -0.7617 C   0  0  0  0  0  0  0  0  0  0  0  0
    3.9122    1.5707   -1.2586 H   0  0  0  0  0  0  0  0  0  0  0  0
    5.9974    1.1064   -0.8124 C   0  0  0  0  0  0  0  0  0  0  0  0
    6.3930    1.9775   -1.3562 H   0  0  0  0  0  0  0  0  0  0  0  0
    6.8797    0.2149   -0.1757 C   0  0  0  0  0  0  0  0  0  0  0  0
    7.9655    0.3882   -0.2171 H   0  0  0  0  0  0  0  0  0  0  0  0
    6.3705   -0.8936    0.5209 C   0  0  0  0  0  0  0  0  0  0  0  0
    7.0552   -1.5830    1.0375 H   0  0  0  0  0  0  0  0  0  0  0  0
    4.9893   -1.1171    0.5763 C   0  0  0  0  0  0  0  0  0  0  0  0
    4.6019   -1.9623    1.1660 H   0  0  0  0  0  0  0  0  0  0  0  0
    0.2590   -2.9655    0.0597 C   0  0  0  0  0  3  0  0  0  0  0  0
   -1.1880   -3.2553   -0.2307 C   0  0  0  0  0  0  0  0  0  0  0  0
   -1.7984   -3.0970    0.6855 H   0  0  0  0  0  0  0  0  0  0  0  0
   -1.5674   -2.5515   -0.9978 H   0  0  0  0  0  0  0  0  0  0  0  0
   -1.1730   -4.7371   -0.6505 C   0  0  0  0  0  0  0  0  0  0  0  0
   -2.1430   -5.2452   -0.4848 H   0  0  0  0  0  0  0  0  0  0  0  0
   -0.9413   -4.8131   -1.7345 H   0  0  0  0  0  0  0  0  0  0  0  0
   -0.0235   -5.3467    0.1703 C   0  0  0  0  0  0  0  0  0  0  0  0
   -0.3544   -5.5119    1.2177 H   0  0  0  0  0  0  0  0  0  0  0  0
    0.3387   -6.3182   -0.2193 H   0  0  0  0  0  0  0  0  0  0  0  0
    1.0594   -4.2495    0.1469 C   0  0  0  0  0  0  0  0  0  0  0  0
    1.7044   -4.3533   -0.7590 H   0  0  0  0  0  0  0  0  0  0  0  0
    1.7338   -4.2809    1.0311 H   0  0  0  0  0  0  0  0  0  0  0  0
  3  2  1  0  0  0  0
  4  2  1  0  0  0  0
  5  1  1  6  0  0  0
  5  2  1  0  0  0  0
  6  5  1  0  0  0  0
  6 15  1  0  0  0  0
  7  6  2  0  0  0  0
  8  7  1  0  0  0  0
  9  7  1  0  0  0  0
  9 11  2  0  0  0  0
 10  9  1  0  0  0  0
 11 13  1  0  0  0  0
 12 11  1  0  0  0  0
 13 15  2  0  0  0  0
 13 14  1  0  0  0  0
 15 16  1  0  0  0  0
 17  4  1  0  0  0  0
 17 27  1  0  0  0  0
 18 17  1  0  0  0  0
 18 19  1  0  0  0  0
 20 18  1  0  0  0  0
 21 22  1  0  0  0  0
 21 18  1  0  0  0  0
 21 24  1  0  0  0  0
 23 21  1  0  0  0  0
 24 25  1  0  0  0  0
 26 24  1  0  0  0  0
 27 24  1  0  0  0  0
 27 29  1  0  0  0  0
 28 27  1  0  0  0  0
M  END
