1,3
 OpenBabel05122313063D

 20 19  0  0  0  0  0  0  0  0999 V2000
   -0.1486   -1.5074   -1.3373 O   0  0  0  0  0  1  0  0  0  0  0  0
   -3.4369    1.1646   -1.3745 O   0  0  0  0  0  0  0  0  0  0  0  0
   -1.8613   -0.6355    0.7042 N   0  0  0  0  0  0  0  0  0  0  0  0
   -1.1604   -2.3648   -0.9231 C   0  0  0  0  0  0  0  0  0  0  0  0
   -2.3488   -1.5759   -0.3650 C   0  0  0  0  0  0  0  0  0  0  0  0
   -1.6201   -1.3478    1.9791 C   0  0  0  0  0  0  0  0  0  0  0  0
   -2.7837    0.5026    0.9527 C   0  0  0  0  0  0  0  0  0  0  0  0
   -2.8534    1.5640   -0.1438 C   0  0  0  0  0  0  0  0  0  0  0  0
   -0.8194   -3.1126   -0.1489 H   0  0  0  0  0  0  0  0  0  0  0  0
   -1.5346   -2.9830   -1.7790 H   0  0  0  0  0  0  0  0  0  0  0  0
   -2.7749   -0.9421   -1.1642 H   0  0  0  0  0  0  0  0  0  0  0  0
   -3.1528   -2.2291    0.0534 H   0  0  0  0  0  0  0  0  0  0  0  0
   -4.3752    0.9612   -1.2036 H   0  0  0  0  0  0  0  0  0  0  0  0
   -0.9656   -2.2199    1.7996 H   0  0  0  0  0  0  0  0  0  0  0  0
   -1.1165   -0.6616    2.6849 H   0  0  0  0  0  0  0  0  0  0  0  0
   -2.5825   -1.7033    2.4160 H   0  0  0  0  0  0  0  0  0  0  0  0
   -2.4045    1.0161    1.8584 H   0  0  0  0  0  0  0  0  0  0  0  0
   -3.7996    0.0977    1.1854 H   0  0  0  0  0  0  0  0  0  0  0  0
   -3.3820    2.4460    0.2934 H   0  0  0  0  0  0  0  0  0  0  0  0
   -1.8128    1.8806   -0.3626 H   0  0  0  0  0  0  0  0  0  0  0  0
  1  4  1  0  0  0  0
  2 13  1  0  0  0  0
  2  8  1  0  0  0  0
  3  7  1  0  0  0  0
  3  6  1  0  0  0  0
  4  5  1  0  0  0  0
  4  9  1  0  0  0  0
  5 12  1  0  0  0  0
  5  3  1  0  0  0  0
  6 16  1  0  0  0  0
  6 15  1  0  0  0  0
  7 18  1  0  0  0  0
  7 17  1  0  0  0  0
  8 19  1  0  0  0  0
  8  7  1  0  0  0  0
 10  4  1  0  0  0  0
 11  5  1  0  0  0  0
 14  6  1  0  0  0  0
 20  8  1  0  0  0  0
M  END
