1,3
 OpenBabel05122313063D

 34 37  0  0  1  0  0  0  0  0999 V2000
    0.3898   -1.2414    0.3311 O   0  0  0  0  0  1  0  0  0  0  0  0
   -1.6595    2.8080    1.0560 O   0  0  0  0  0  0  0  0  0  0  0  0
    2.3036    0.9376   -0.4740 N   0  0  0  0  0  2  0  0  0  0  0  0
   -0.6509    0.7601    0.7864 N   0  0  0  0  0  0  0  0  0  0  0  0
    3.0420    1.2777   -1.5473 C   0  0  0  0  0  3  0  0  0  0  0  0
    3.6678    0.4645   -1.9564 H   0  0  0  0  0  0  0  0  0  0  0  0
    2.9852    2.5599   -2.1065 C   0  0  0  0  0  0  0  0  0  0  0  0
    3.6065    2.8056   -2.9796 H   0  0  0  0  0  0  0  0  0  0  0  0
    2.1220    3.5051   -1.5334 C   0  0  0  0  0  0  0  0  0  0  0  0
    2.0499    4.5217   -1.9490 H   0  0  0  0  0  0  0  0  0  0  0  0
    1.3428    3.1374   -0.4276 C   0  0  0  0  0  0  0  0  0  0  0  0
    0.6303    3.8332    0.0382 H   0  0  0  0  0  0  0  0  0  0  0  0
    1.4619    1.8351    0.0866 C   0  0  0  0  0  0  0  0  0  0  0  0
    0.6197    1.3525    1.2479 C   0  0  0  0  0  0  0  0  0  0  0  0
    1.1822    0.5969    1.8392 H   0  0  0  0  0  0  0  0  0  0  0  0
    0.3454    2.2029    1.8945 H   0  0  0  0  0  0  0  0  0  0  0  0
   -0.6520   -0.5693    0.3637 C   0  0  1  0  0  3  0  0  0  0  0  0
   -1.9461   -1.1531   -0.0467 C   0  0  0  0  0  0  0  0  0  0  0  0
   -2.0012   -2.4882   -0.4518 C   0  0  0  0  0  0  0  0  0  0  0  0
   -1.0685   -3.0712   -0.4584 H   0  0  0  0  0  0  0  0  0  0  0  0
   -3.2334   -3.0608   -0.8440 C   0  0  0  0  0  0  0  0  0  0  0  0
   -3.2652   -4.1142   -1.1583 H   0  0  0  0  0  0  0  0  0  0  0  0
   -4.3984   -2.3010   -0.8354 C   0  0  0  0  0  0  0  0  0  0  0  0
   -5.3567   -2.7488   -1.1411 H   0  0  0  0  0  0  0  0  0  0  0  0
   -4.3770   -0.9324   -0.4376 C   0  0  0  0  0  0  0  0  0  0  0  0
   -5.5399   -0.1093   -0.4226 C   0  0  0  0  0  0  0  0  0  0  0  0
   -6.5035   -0.5474   -0.7257 H   0  0  0  0  0  0  0  0  0  0  0  0
   -5.4649    1.2249   -0.0358 C   0  0  0  0  0  0  0  0  0  0  0  0
   -6.3715    1.8476   -0.0300 H   0  0  0  0  0  0  0  0  0  0  0  0
   -4.2272    1.7903    0.3491 C   0  0  0  0  0  0  0  0  0  0  0  0
   -4.1472    2.8443    0.6532 H   0  0  0  0  0  0  0  0  0  0  0  0
   -3.0681    1.0124    0.3516 C   0  0  0  0  0  0  0  0  0  0  0  0
   -1.7801    1.6245    0.7543 C   0  0  0  0  0  0  0  0  0  0  0  0
   -3.1241   -0.3549   -0.0371 C   0  0  0  0  0  0  0  0  0  0  0  0
  3 13  1  0  0  0  0
  4 14  1  0  0  0  0
  5  3  1  0  0  0  0
  6  5  1  0  0  0  0
  7  5  1  0  0  0  0
  7  9  2  0  0  0  0
  8  7  1  0  0  0  0
  9 11  1  0  0  0  0
 10  9  1  0  0  0  0
 11 12  1  0  0  0  0
 11 13  2  0  0  0  0
 13 14  1  0  0  0  0
 14 15  1  0  0  0  0
 14 16  1  0  0  0  0
 17  1  1  6  0  0  0
 17  4  1  0  0  0  0
 18 34  1  0  0  0  0
 18 17  1  0  0  0  0
 19 18  2  0  0  0  0
 20 19  1  0  0  0  0
 21 23  2  0  0  0  0
 21 19  1  0  0  0  0
 22 21  1  0  0  0  0
 23 25  1  0  0  0  0
 24 23  1  0  0  0  0
 25 26  2  0  0  0  0
 25 34  1  0  0  0  0
 26 28  1  0  0  0  0
 27 26  1  0  0  0  0
 28 29  1  0  0  0  0
 28 30  2  0  0  0  0
 30 32  1  0  0  0  0
 30 31  1  0  0  0  0
 32 33  1  0  0  0  0
 33  4  1  0  0  0  0
 33  2  2  0  0  0  0
 34 32  2  0  0  0  0
M  END
