1,2
 OpenBabel05122313063D

 59 61  0  0  0  0  0  0  0  0999 V2000
   -0.3903    0.3479    0.2166 O   0  5  0  0  0  0  0  0  0  0  0  0
    2.2662    0.4233    0.1760 N   0  0  0  0  0  2  0  0  0  0  0  0
   -3.0582    0.3992    0.2561 N   0  0  0  0  0  0  0  0  0  0  0  0
    7.5555   -1.7903    0.6052 C   0  0  0  0  0  0  0  0  0  0  0  0
    7.9646   -1.7005    1.6312 H   0  0  0  0  0  0  0  0  0  0  0  0
    8.2707   -1.3221   -0.0987 H   0  0  0  0  0  0  0  0  0  0  0  0
    7.5197   -2.8750    0.3652 H   0  0  0  0  0  0  0  0  0  0  0  0
    6.1835   -1.1773    0.4985 C   0  0  0  0  0  0  0  0  0  0  0  0
    5.7715   -0.5218   -0.6760 C   0  0  0  0  0  0  0  0  0  0  0  0
    6.4755   -0.4316   -1.5187 H   0  0  0  0  0  0  0  0  0  0  0  0
    4.4856    0.0260   -0.8186 C   0  0  0  0  0  0  0  0  0  0  0  0
    4.0814    0.7240   -2.0892 C   0  0  0  0  0  0  0  0  0  0  0  0
    3.1090    0.3398   -2.4621 H   0  0  0  0  0  0  0  0  0  0  0  0
    4.8495    0.5848   -2.8729 H   0  0  0  0  0  0  0  0  0  0  0  0
    3.9538    1.8173   -1.9394 H   0  0  0  0  0  0  0  0  0  0  0  0
    3.5879   -0.1107    0.2726 C   0  0  0  0  0  0  0  0  0  0  0  0
    3.9671   -0.7563    1.4788 C   0  0  0  0  0  0  0  0  0  0  0  0
    2.9974   -0.9200    2.6169 C   0  0  0  0  0  0  0  0  0  0  0  0
    2.3025   -1.7601    2.3976 H   0  0  0  0  0  0  0  0  0  0  0  0
    2.3766   -0.0153    2.7749 H   0  0  0  0  0  0  0  0  0  0  0  0
    3.5266   -1.1495    3.5611 H   0  0  0  0  0  0  0  0  0  0  0  0
    5.2683   -1.2719    1.5647 C   0  0  0  0  0  0  0  0  0  0  0  0
    5.5758   -1.7707    2.4978 H   0  0  0  0  0  0  0  0  0  0  0  0
    2.0749    1.7306    0.2041 C   0  0  0  0  0  3  0  0  0  0  0  0
    2.9785    2.3540    0.3351 H   0  0  0  0  0  0  0  0  0  0  0  0
    0.8192    2.4024    0.1135 C   0  0  0  0  0  0  0  0  0  0  0  0
    0.7761    3.8208    0.0508 C   0  0  0  0  0  0  0  0  0  0  0  0
    1.7279    4.3761    0.0514 H   0  0  0  0  0  0  0  0  0  0  0  0
   -0.4311    4.5163   -0.0235 C   0  0  0  0  0  0  0  0  0  0  0  0
   -0.4829    6.0201   -0.1068 C   0  0  0  0  0  0  0  0  0  0  0  0
   -1.0510    6.4523    0.7434 H   0  0  0  0  0  0  0  0  0  0  0  0
   -0.9920    6.3546   -1.0349 H   0  0  0  0  0  0  0  0  0  0  0  0
    0.5305    6.4649   -0.0980 H   0  0  0  0  0  0  0  0  0  0  0  0
   -1.6278    3.7559   -0.0266 C   0  0  0  0  0  0  0  0  0  0  0  0
   -2.5928    4.2845   -0.1057 H   0  0  0  0  0  0  0  0  0  0  0  0
   -1.6586    2.3578    0.0641 C   0  0  0  0  0  0  0  0  0  0  0  0
   -0.4055    1.6412    0.1326 C   0  0  0  0  0  0  0  0  0  0  0  0
   -2.9439    1.6579    0.0142 C   0  0  0  0  0  0  0  0  0  0  0  0
   -3.8026    2.2957   -0.3055 H   0  0  0  0  0  0  0  0  0  0  0  0
   -4.2235   -0.3513    0.1842 C   0  0  0  0  0  0  0  0  0  0  0  0
   -4.0512   -1.6776   -0.3281 C   0  0  0  0  0  0  0  0  0  0  0  0
   -2.6785   -2.1462   -0.7321 C   0  0  0  0  0  0  0  0  0  0  0  0
   -2.7030   -3.1892   -1.1011 H   0  0  0  0  0  0  0  0  0  0  0  0
   -1.9781   -2.0946    0.1271 H   0  0  0  0  0  0  0  0  0  0  0  0
   -2.2235   -1.5074   -1.5155 H   0  0  0  0  0  0  0  0  0  0  0  0
   -5.1687   -2.5129   -0.4383 C   0  0  0  0  0  0  0  0  0  0  0  0
   -5.0327   -3.5246   -0.8546 H   0  0  0  0  0  0  0  0  0  0  0  0
   -6.4492   -2.1096   -0.0064 C   0  0  0  0  0  0  0  0  0  0  0  0
   -7.6310   -3.0364   -0.1347 C   0  0  0  0  0  0  0  0  0  0  0  0
   -8.5223   -2.6404    0.3896 H   0  0  0  0  0  0  0  0  0  0  0  0
   -7.4064   -4.0409    0.2801 H   0  0  0  0  0  0  0  0  0  0  0  0
   -7.9080   -3.1875   -1.2001 H   0  0  0  0  0  0  0  0  0  0  0  0
   -6.5806   -0.8279    0.5539 C   0  0  0  0  0  0  0  0  0  0  0  0
   -7.5650   -0.5104    0.9363 H   0  0  0  0  0  0  0  0  0  0  0  0
   -5.5032    0.0720    0.6530 C   0  0  0  0  0  0  0  0  0  0  0  0
   -5.7300    1.4143    1.3071 C   0  0  0  0  0  0  0  0  0  0  0  0
   -4.8515    1.7424    1.8986 H   0  0  0  0  0  0  0  0  0  0  0  0
   -6.6039    1.3699    1.9863 H   0  0  0  0  0  0  0  0  0  0  0  0
   -5.9379    2.2158    0.5669 H   0  0  0  0  0  0  0  0  0  0  0  0
  2 24  1  0  0  0  0
  2 16  1  0  0  0  0
  4  5  1  0  0  0  0
  6  4  1  0  0  0  0
  7  4  1  0  0  0  0
  8  4  1  0  0  0  0
  8 22  1  0  0  0  0
  9  8  2  0  0  0  0
 10  9  1  0  0  0  0
 11  9  1  0  0  0  0
 11 16  2  0  0  0  0
 12 15  1  0  0  0  0
 12 11  1  0  0  0  0
 13 12  1  0  0  0  0
 14 12  1  0  0  0  0
 16 17  1  0  0  0  0
 17 22  2  0  0  0  0
 17 18  1  0  0  0  0
 18 20  1  0  0  0  0
 18 21  1  0  0  0  0
 19 18  1  0  0  0  0
 22 23  1  0  0  0  0
 24 25  1  0  0  0  0
 26 37  1  0  0  0  0
 26 24  1  0  0  0  0
 27 28  1  0  0  0  0
 27 26  2  0  0  0  0
 29 27  1  0  0  0  0
 30 33  1  0  0  0  0
 30 29  1  0  0  0  0
 30 31  1  0  0  0  0
 32 30  1  0  0  0  0
 34 29  2  0  0  0  0
 34 36  1  0  0  0  0
 35 34  1  0  0  0  0
 36 37  2  0  0  0  0
 37  1  1  0  0  0  0
 38 36  1  0  0  0  0
 38  3  2  0  0  0  0
 39 38  1  0  0  0  0
 40  3  1  0  0  0  0
 40 55  1  0  0  0  0
 41 40  2  0  0  0  0
 42 41  1  0  0  0  0
 42 44  1  0  0  0  0
 43 42  1  0  0  0  0
 45 42  1  0  0  0  0
 46 41  1  0  0  0  0
 46 48  2  0  0  0  0
 47 46  1  0  0  0  0
 48 53  1  0  0  0  0
 49 48  1  0  0  0  0
 49 51  1  0  0  0  0
 49 50  1  0  0  0  0
 52 49  1  0  0  0  0
 53 55  2  0  0  0  0
 53 54  1  0  0  0  0
 55 56  1  0  0  0  0
 56 57  1  0  0  0  0
 56 58  1  0  0  0  0
 59 56  1  0  0  0  0
M  CHG  1   1  -1
M  END
