24,26
 OpenBabel05122313063D

 30 30  0  0  1  0  0  0  0  0999 V2000
   -3.0198   -2.7427    2.4374 C   0  0  0  0  0  0  0  0  0  0  0  0
   -4.0552   -2.5148    2.0906 H   0  0  0  0  0  0  0  0  0  0  0  0
   -2.9061   -3.8471    2.4058 H   0  0  0  0  0  0  0  0  0  0  0  0
   -2.0464   -2.1158    1.4278 C   0  0  1  0  0  0  0  0  0  0  0  0
   -2.1701   -1.0017    1.4956 H   0  0  0  0  0  0  0  0  0  0  0  0
   -0.5920   -2.4315    1.8219 C   0  0  0  0  0  0  0  0  0  0  0  0
   -0.4466   -2.0718    2.8654 H   0  0  0  0  0  0  0  0  0  0  0  0
   -0.4459   -3.5354    1.8241 H   0  0  0  0  0  0  0  0  0  0  0  0
    1.4104   -2.4858    0.5309 C   0  0  0  0  0  3  0  0  0  0  0  0
    1.4867   -3.5335    0.8967 H   0  0  0  0  0  0  0  0  0  0  0  0
    2.5051   -2.0681   -0.3104 C   0  0  0  0  0  0  0  0  0  0  0  0
    3.5622   -3.0145   -0.4937 C   0  0  0  0  0  0  0  0  0  0  0  0
    3.4609   -4.0077   -0.0288 H   0  0  0  0  0  0  0  0  0  0  0  0
    4.6956   -2.6938   -1.2212 C   0  0  0  0  0  0  0  0  0  0  0  0
    5.5032   -3.4283   -1.3518 H   0  0  0  0  0  0  0  0  0  0  0  0
    4.8241   -1.4042   -1.7963 C   0  0  0  0  0  0  0  0  0  0  0  0
    5.7333   -1.1547   -2.3607 H   0  0  0  0  0  0  0  0  0  0  0  0
    3.8062   -0.4603   -1.6547 C   0  0  0  0  0  0  0  0  0  0  0  0
    2.5974   -0.7711   -0.9260 C   0  0  0  0  0  0  0  0  0  0  0  0
    4.9959    1.2417   -2.8148 C   0  0  0  0  0  0  0  0  0  0  0  0
    5.8909    1.1866   -2.1539 H   0  0  0  0  0  0  0  0  0  0  0  0
    4.8200    2.2963   -3.0961 H   0  0  0  0  0  0  0  0  0  0  0  0
    5.1985    0.6486   -3.7356 H   0  0  0  0  0  0  0  0  0  0  0  0
    0.3759   -1.7958    0.9375 N   0  0  0  0  0  2  0  0  0  0  0  0
    3.8278    0.8039   -2.1534 O   0  0  0  0  0  0  0  0  0  0  0  0
    1.6757    0.1527   -0.8671 O   0  5  0  0  0  0  0  0  0  0  0  0
   -2.7781   -2.3437    3.7763 O   0  0  0  0  0  0  0  0  0  0  0  0
   -2.9899   -1.3937    3.8338 H   0  0  0  0  0  0  0  0  0  0  0  0
   -2.3740   -2.5770    0.1448 O   0  0  0  0  0  0  0  0  0  0  0  0
   -2.2324   -1.8197   -0.4795 H   0  0  0  0  0  0  0  0  0  0  0  0
  1 27  1  0  0  0  0
  2  1  1  0  0  0  0
  3  1  1  0  0  0  0
  4  5  1  1  0  0  0
  4  6  1  0  0  0  0
  4  1  1  0  0  0  0
  6  8  1  0  0  0  0
  6  7  1  0  0  0  0
  9 10  1  0  0  0  0
  9 24  1  0  0  0  0
 11  9  1  0  0  0  0
 12 11  1  0  0  0  0
 12 13  1  0  0  0  0
 14 12  2  0  0  0  0
 15 14  1  0  0  0  0
 16 18  2  0  0  0  0
 16 14  1  0  0  0  0
 17 16  1  0  0  0  0
 18 19  1  0  0  0  0
 19 26  1  0  0  0  0
 19 11  2  0  0  0  0
 20 21  1  0  0  0  0
 20 25  1  0  0  0  0
 22 20  1  0  0  0  0
 23 20  1  0  0  0  0
 24  6  1  0  0  0  0
 25 18  1  0  0  0  0
 27 28  1  0  0  0  0
 29  4  1  0  0  0  0
 30 29  1  0  0  0  0
M  CHG  1  26  -1
M  END
