5,6
 OpenBabel05122313063D

 35 37  0  0  0  0  0  0  0  0999 V2000
   -5.2933    1.4937    0.1627 S   0  0  0  0  0  0  0  0  0  0  0  0
   -4.5782    1.4747    1.4541 O   0  0  0  0  0  0  0  0  0  0  0  0
   -5.7557    2.7654   -0.4333 O   0  0  0  0  0  0  0  0  0  0  0  0
   -4.3114    0.6937   -0.9613 N   0  0  0  0  0  0  0  0  0  0  0  0
    0.1377   -2.0212   -0.1148 N   0  0  0  0  0  2  0  0  0  0  0  0
   -1.7376   -0.0865   -0.9963 O   0  5  0  0  0  0  0  0  0  0  0  0
   -2.2350   -2.2430   -0.2244 N   0  0  0  0  0  0  0  0  0  0  0  0
   -3.9779   -0.6384   -0.5692 C   0  0  0  0  0  0  0  0  0  0  0  0
   -6.3608   -1.0450    0.1353 C   0  0  0  0  0  0  0  0  0  0  0  0
    1.3707   -2.5886   -0.1023 C   0  0  0  0  0  3  0  0  0  0  0  0
    2.2233   -1.8944   -0.0691 H   0  0  0  0  0  0  0  0  0  0  0  0
   -4.9685   -1.5617   -0.0835 C   0  0  0  0  0  0  0  0  0  0  0  0
   -0.9795   -2.8021   -0.1669 C   0  0  0  0  0  0  0  0  0  0  0  0
   -7.9685    0.7992    0.4250 C   0  0  0  0  0  0  0  0  0  0  0  0
   -8.1538    1.8822    0.4742 H   0  0  0  0  0  0  0  0  0  0  0  0
    1.5543   -3.9680   -0.0976 C   0  0  0  0  0  0  0  0  0  0  0  0
    2.5782   -4.3663   -0.0855 H   0  0  0  0  0  0  0  0  0  0  0  0
   -7.4221   -1.9612    0.2677 C   0  0  0  0  0  0  0  0  0  0  0  0
   -7.1772   -3.0321    0.2122 H   0  0  0  0  0  0  0  0  0  0  0  0
   -0.8524   -4.2142   -0.1405 C   0  0  0  0  0  0  0  0  0  0  0  0
   -1.7655   -4.8250   -0.1712 H   0  0  0  0  0  0  0  0  0  0  0  0
   -2.5941   -0.9650   -0.6001 C   0  0  0  0  0  0  0  0  0  0  0  0
   -6.6610    0.3347    0.2391 C   0  0  0  0  0  0  0  0  0  0  0  0
   -8.7336   -1.5107    0.4652 C   0  0  0  0  0  0  0  0  0  0  0  0
   -9.5527   -2.2392    0.5626 H   0  0  0  0  0  0  0  0  0  0  0  0
   -4.5041    0.9814   -2.3822 C   0  0  0  0  0  0  0  0  0  0  0  0
   -5.2991    0.3495   -2.8389 H   0  0  0  0  0  0  0  0  0  0  0  0
   -4.7696    2.0482   -2.4976 H   0  0  0  0  0  0  0  0  0  0  0  0
   -3.5451    0.7924   -2.9036 H   0  0  0  0  0  0  0  0  0  0  0  0
   -9.0105   -0.1335    0.5345 C   0  0  0  0  0  0  0  0  0  0  0  0
  -10.0438    0.2166    0.6780 H   0  0  0  0  0  0  0  0  0  0  0  0
    0.4138   -4.7929   -0.1015 C   0  0  0  0  0  0  0  0  0  0  0  0
    0.5136   -5.8886   -0.0881 H   0  0  0  0  0  0  0  0  0  0  0  0
   -4.7150   -2.7677    0.2114 O   0  0  0  0  0  0  0  0  0  0  0  0
   -3.1167   -2.8103   -0.0044 H   0  0  0  0  0  0  0  0  0  0  0  0
  1 23  1  0  0  0  0
  1  2  2  0  0  0  0
  3  1  2  0  0  0  0
  4  8  1  0  0  0  0
  4  1  1  0  0  0  0
  5 10  1  0  0  0  0
  6 22  1  0  0  0  0
  7 13  1  0  0  0  0
  7 35  1  0  0  0  0
  8 12  1  0  0  0  0
  9 23  2  0  0  0  0
  9 18  1  0  0  0  0
 10 16  1  0  0  0  0
 10 11  1  0  0  0  0
 12  9  1  0  0  0  0
 12 34  2  0  0  0  0
 13 20  2  0  0  0  0
 13  5  1  0  0  0  0
 14 15  1  0  0  0  0
 14 30  2  0  0  0  0
 16 17  1  0  0  0  0
 18 24  2  0  0  0  0
 19 18  1  0  0  0  0
 20 32  1  0  0  0  0
 21 20  1  0  0  0  0
 22  8  2  0  0  0  0
 22  7  1  0  0  0  0
 23 14  1  0  0  0  0
 24 30  1  0  0  0  0
 24 25  1  0  0  0  0
 26  4  1  0  0  0  0
 27 26  1  0  0  0  0
 28 26  1  0  0  0  0
 29 26  1  0  0  0  0
 30 31  1  0  0  0  0
 32 16  2  0  0  0  0
 32 33  1  0  0  0  0
M  CHG  1   6  -1
M  END
