2,3
 OpenBabel05122313063D

 34 36  0  0  1  0  0  0  0  0999 V2000
    3.4666    2.4179    1.4846 S   0  0  0  0  0  0  0  0  0  0  0  0
    0.8936   -1.6235    0.1819 O   0  5  0  0  0  0  0  0  0  0  0  0
    1.4985    0.7938   -0.8933 N   0  0  0  0  0  2  0  0  0  0  0  0
    2.1654   -1.8902    0.0941 C   0  0  0  0  0  0  0  0  0  0  0  0
    2.5875   -3.2171    0.4638 C   0  0  0  0  0  0  0  0  0  0  0  0
    1.8073   -3.9255    0.7785 H   0  0  0  0  0  0  0  0  0  0  0  0
    3.9146   -3.5747    0.4272 C   0  0  0  0  0  0  0  0  0  0  0  0
    4.2171   -4.5936    0.7175 H   0  0  0  0  0  0  0  0  0  0  0  0
    4.9365   -2.6475    0.0375 C   0  0  0  0  0  0  0  0  0  0  0  0
    6.3089   -3.0153    0.0516 C   0  0  0  0  0  0  0  0  0  0  0  0
    6.5738   -4.0412    0.3526 H   0  0  0  0  0  0  0  0  0  0  0  0
    7.2993   -2.1044   -0.2962 C   0  0  0  0  0  0  0  0  0  0  0  0
    8.3592   -2.3988   -0.2794 H   0  0  0  0  0  0  0  0  0  0  0  0
    6.9307   -0.7867   -0.6567 C   0  0  0  0  0  0  0  0  0  0  0  0
    7.7086   -0.0496   -0.9086 H   0  0  0  0  0  0  0  0  0  0  0  0
    5.5932   -0.4016   -0.6826 C   0  0  0  0  0  0  0  0  0  0  0  0
    5.3530    0.6430   -0.9266 H   0  0  0  0  0  0  0  0  0  0  0  0
    4.5535   -1.3176   -0.3566 C   0  0  2  0  0  3  0  0  0  0  0  0
    3.1449   -0.9644   -0.3721 C   0  0  0  0  0  0  0  0  0  0  0  0
    2.7127    0.2815   -0.9134 C   0  0  0  0  0  0  0  0  0  0  0  0
    3.4782    0.8780   -1.4410 H   0  0  0  0  0  0  0  0  0  0  0  0
    1.3769    2.1120   -1.5230 C   0  0  0  0  0  0  0  0  0  0  0  0
    0.3508    2.2293   -1.9114 H   0  0  0  0  0  0  0  0  0  0  0  0
    2.0886    2.1771   -2.3737 H   0  0  0  0  0  0  0  0  0  0  0  0
    1.6654    3.2602   -0.5263 C   0  0  0  0  0  0  0  0  0  0  0  0
    1.4836    4.2201   -1.0544 H   0  0  0  0  0  0  0  0  0  0  0  0
    0.9216    3.1914    0.2910 H   0  0  0  0  0  0  0  0  0  0  0  0
    3.0673    3.2553    0.0057 C   0  0  0  0  0  0  0  0  0  0  0  0
    4.2176    3.7659   -0.5794 C   0  0  0  0  0  0  0  0  0  0  0  0
    4.1992    4.3327   -1.5217 H   0  0  0  0  0  0  0  0  0  0  0  0
    5.4055    3.4884    0.1649 C   0  0  0  0  0  0  0  0  0  0  0  0
    6.4112    3.8186   -0.1301 H   0  0  0  0  0  0  0  0  0  0  0  0
    5.1531    2.7624    1.3143 C   0  0  0  0  0  0  0  0  0  0  0  0
    5.8652    2.4103    2.0703 H   0  0  0  0  0  0  0  0  0  0  0  0
  4  2  1  0  0  0  0
  4  5  2  0  0  0  0
  5  6  1  0  0  0  0
  7  5  1  0  0  0  0
  7  8  1  0  0  0  0
  9 10  1  0  0  0  0
  9  7  2  0  0  0  0
 10 11  1  0  0  0  0
 12 13  1  0  0  0  0
 12 10  2  0  0  0  0
 14 12  1  0  0  0  0
 15 14  1  0  0  0  0
 16 14  2  0  0  0  0
 17 16  1  0  0  0  0
 18 16  1  1  0  0  0
 18  9  1  0  0  0  0
 19 18  1  0  0  0  0
 19  4  1  0  0  0  0
 20  3  1  0  0  0  0
 20 19  2  0  0  0  0
 21 20  1  0  0  0  0
 22  3  1  0  0  0  0
 22 25  1  0  0  0  0
 23 22  1  0  0  0  0
 24 22  1  0  0  0  0
 25 28  1  0  0  0  0
 25 27  1  0  0  0  0
 26 25  1  0  0  0  0
 28  1  1  0  0  0  0
 29 28  2  0  0  0  0
 29 31  1  0  0  0  0
 30 29  1  0  0  0  0
 31 33  2  0  0  0  0
 32 31  1  0  0  0  0
 33  1  1  0  0  0  0
 33 34  1  0  0  0  0
M  CHG  1   2  -1
M  END
