1,2
 OpenBabel05122313063D

 26 27  0  0  1  0  0  0  0  0999 V2000
    0.7573    2.0565   -0.1699 O   0  0  0  0  0  1  0  0  0  0  0  0
   -1.3140    0.4514   -0.0253 N   0  0  0  0  0  2  0  0  0  0  0  0
   -2.3229   -0.4934   -0.0282 C   0  0  2  0  0  3  0  0  0  0  0  0
   -2.0437   -1.8372   -0.3886 C   0  0  0  0  0  0  0  0  0  0  0  0
   -1.0249   -2.0684   -0.7230 H   0  0  0  0  0  0  0  0  0  0  0  0
   -3.0516   -2.7916   -0.3669 C   0  0  0  0  0  0  0  0  0  0  0  0
   -2.8247   -3.8262   -0.6662 H   0  0  0  0  0  0  0  0  0  0  0  0
   -4.3738   -2.4448    0.0158 C   0  0  0  0  0  0  0  0  0  0  0  0
   -5.1584   -3.2157    0.0386 H   0  0  0  0  0  0  0  0  0  0  0  0
   -4.6808   -1.1279    0.3252 C   0  0  0  0  0  0  0  0  0  0  0  0
   -5.7096   -0.8352    0.5860 H   0  0  0  0  0  0  0  0  0  0  0  0
   -3.6758   -0.1195    0.2847 C   0  0  0  0  0  0  0  0  0  0  0  0
   -3.9533    1.2602    0.4949 C   0  0  0  0  0  0  0  0  0  0  0  0
   -4.9788    1.5744    0.7439 H   0  0  0  0  0  0  0  0  0  0  0  0
   -2.9409    2.1875    0.3405 C   0  0  0  0  0  0  0  0  0  0  0  0
   -3.1389    3.2636    0.4367 H   0  0  0  0  0  0  0  0  0  0  0  0
   -1.6129    1.7566    0.0722 C   0  0  0  0  0  0  0  0  0  0  0  0
   -0.4665    2.7235   -0.1992 C   0  0  0  0  0  0  0  0  0  0  0  0
   -0.4202    3.8491    0.8560 C   0  0  0  0  0  0  0  0  0  0  0  0
   -1.3140    4.5059    0.8339 H   0  0  0  0  0  0  0  0  0  0  0  0
    0.4703    4.4736    0.6484 H   0  0  0  0  0  0  0  0  0  0  0  0
   -0.3133    3.4190    1.8717 H   0  0  0  0  0  0  0  0  0  0  0  0
   -0.7178    3.3101   -1.6179 C   0  0  0  0  0  0  0  0  0  0  0  0
   -1.6770    3.8633   -1.6932 H   0  0  0  0  0  0  0  0  0  0  0  0
   -0.6972    2.4862   -2.3573 H   0  0  0  0  0  0  0  0  0  0  0  0
    0.1153    4.0037   -1.8474 H   0  0  0  0  0  0  0  0  0  0  0  0
  2 17  1  0  0  0  0
  3  4  1  6  0  0  0
  3  2  1  0  0  0  0
  3 12  1  0  0  0  0
  4  6  2  0  0  0  0
  5  4  1  0  0  0  0
  6  8  1  0  0  0  0
  7  6  1  0  0  0  0
  8  9  1  0  0  0  0
  8 10  2  0  0  0  0
 10 11  1  0  0  0  0
 12 10  1  0  0  0  0
 12 13  2  0  0  0  0
 13 14  1  0  0  0  0
 15 16  1  0  0  0  0
 15 13  1  0  0  0  0
 17 15  2  0  0  0  0
 18  1  1  0  0  0  0
 18 17  1  0  0  0  0
 18 19  1  0  0  0  0
 19 22  1  0  0  0  0
 20 19  1  0  0  0  0
 21 19  1  0  0  0  0
 23 18  1  0  0  0  0
 24 23  1  0  0  0  0
 25 23  1  0  0  0  0
 26 23  1  0  0  0  0
M  END
