30,33
 OpenBabel05122313063D

 35 36  0  0  0  0  0  0  0  0999 V2000
   -5.1441   -0.0426    0.1661 C   0  0  0  0  0  0  0  0  0  0  0  0
   -4.5607    1.2118   -0.0258 C   0  0  0  0  0  0  0  0  0  0  0  0
   -5.1369    2.1240    0.1819 H   0  0  0  0  0  0  0  0  0  0  0  0
   -3.2095    1.3304   -0.4326 C   0  0  0  0  0  0  0  0  0  0  0  0
   -2.7771    2.3356   -0.5503 H   0  0  0  0  0  0  0  0  0  0  0  0
   -2.4163    0.2122   -0.6310 C   0  0  0  0  0  0  0  0  0  0  0  0
   -1.3608    0.3090   -0.9048 H   0  0  0  0  0  0  0  0  0  0  0  0
   -2.9725   -1.0931   -0.4809 C   0  0  0  0  0  0  0  0  0  0  0  0
   -2.2246   -2.3007   -0.6890 C   0  0  0  0  0  0  0  0  0  0  0  0
   -2.8192   -3.5517   -0.6195 C   0  0  0  0  0  0  0  0  0  0  0  0
   -2.1871   -4.4373   -0.7782 H   0  0  0  0  0  0  0  0  0  0  0  0
   -4.2090   -3.6610   -0.3719 C   0  0  0  0  0  0  0  0  0  0  0  0
   -4.6876   -4.6520   -0.3776 H   0  0  0  0  0  0  0  0  0  0  0  0
   -4.9632   -2.5224   -0.1307 C   0  0  0  0  0  0  0  0  0  0  0  0
   -6.0472   -2.5964    0.0341 H   0  0  0  0  0  0  0  0  0  0  0  0
   -4.3678   -1.2277   -0.1294 C   0  0  0  0  0  0  0  0  0  0  0  0
   -7.3817    0.9160    0.3988 C   0  0  0  0  0  0  0  0  0  0  0  0
   -7.2155    1.7772    1.0970 H   0  0  0  0  0  0  0  0  0  0  0  0
   -8.4249    0.5699    0.5520 H   0  0  0  0  0  0  0  0  0  0  0  0
   -7.2885    1.2893   -0.6394 H   0  0  0  0  0  0  0  0  0  0  0  0
   -6.6524   -0.7978    1.9335 C   0  0  0  0  0  0  0  0  0  0  0  0
   -5.9312   -1.6200    2.0880 H   0  0  0  0  0  0  0  0  0  0  0  0
   -7.6787   -1.2102    2.0325 H   0  0  0  0  0  0  0  0  0  0  0  0
   -6.4999   -0.0529    2.7548 H   0  0  0  0  0  0  0  0  0  0  0  0
    0.0901   -1.9049    1.5243 C   0  0  0  0  0  0  0  0  0  0  0  0
    0.5497   -2.9110    1.6567 H   0  0  0  0  0  0  0  0  0  0  0  0
   -0.9772   -2.0060    1.8298 H   0  0  0  0  0  0  0  0  0  0  0  0
    0.7534   -0.9602    2.5716 C   0  0  0  0  0  0  0  0  0  0  0  0
   -6.4771   -0.1942    0.6149 N   0  0  0  0  0  0  0  0  0  0  0  0
    0.2244   -1.4019    0.1573 N   0  0  0  0  0  2  0  0  0  0  0  0
   -0.2815   -1.4879   -2.3147 O   0  0  0  0  0  0  0  0  0  0  0  0
    0.0006   -3.6896   -1.0697 O   0  0  0  0  0  0  0  0  0  0  0  0
    1.3948    0.0854    2.0944 O   0  5  0  0  0  0  0  0  0  0  0  0
    0.6483   -1.2480    3.7588 O   0  0  0  0  0  0  0  0  0  0  0  0
   -0.4393   -2.2693   -1.0283 S   0  0  0  0  0  0  0  0  0  0  0  0
  1 29  1  0  0  0  0
  2  1  1  0  0  0  0
  2  3  1  0  0  0  0
  4  2  2  0  0  0  0
  5  4  1  0  0  0  0
  6  8  2  0  0  0  0
  6  4  1  0  0  0  0
  7  6  1  0  0  0  0
  8 16  1  0  0  0  0
  9 10  2  0  0  0  0
  9  8  1  0  0  0  0
 10 12  1  0  0  0  0
 11 10  1  0  0  0  0
 12 14  2  0  0  0  0
 13 12  1  0  0  0  0
 14 16  1  0  0  0  0
 14 15  1  0  0  0  0
 16  1  2  0  0  0  0
 17 19  1  0  0  0  0
 17 29  1  0  0  0  0
 17 18  1  0  0  0  0
 20 17  1  0  0  0  0
 21 23  1  0  0  0  0
 21 22  1  0  0  0  0
 21 24  1  0  0  0  0
 25 26  1  0  0  0  0
 25 27  1  0  0  0  0
 25 28  1  0  0  0  0
 28 34  2  0  0  0  0
 29 21  1  0  0  0  0
 30 25  1  0  0  0  0
 31 35  2  0  0  0  0
 32 35  2  0  0  0  0
 33 28  1  0  0  0  0
 35  9  1  0  0  0  0
 35 30  1  0  0  0  0
M  CHG  1  33  -1
M  END
