1,2
 OpenBabel05122313063D

 60 62  0  0  0  0  0  0  0  0999 V2000
    1.1749   -1.2826   -0.0203 O   0  5  0  0  0  0  0  0  0  0  0  0
   -0.7595    0.1942   -1.2081 N   0  0  0  0  0  2  0  0  0  0  0  0
    2.0431   -0.2870   -0.1771 C   0  0  0  0  0  0  0  0  0  0  0  0
    1.5741    0.9150   -0.7801 C   0  0  0  0  0  0  0  0  0  0  0  0
    2.4619    2.0067   -0.9532 C   0  0  0  0  0  0  0  0  0  0  0  0
    2.0672    2.9181   -1.4233 H   0  0  0  0  0  0  0  0  0  0  0  0
    3.7906    1.9293   -0.5362 C   0  0  0  0  0  0  0  0  0  0  0  0
    4.2183    0.7060    0.0402 C   0  0  0  0  0  0  0  0  0  0  0  0
    5.2654    0.6329    0.3613 H   0  0  0  0  0  0  0  0  0  0  0  0
    3.4004   -0.4186    0.2306 C   0  0  0  0  0  0  0  0  0  0  0  0
   -1.9873    0.6184   -1.8110 C   0  0  0  0  0  0  0  0  0  0  0  0
   -2.5704   -0.1171   -2.8584 C   0  0  0  0  0  0  0  0  0  0  0  0
   -2.0462   -1.0095   -3.2265 H   0  0  0  0  0  0  0  0  0  0  0  0
   -3.8032    0.2730   -3.3937 C   0  0  0  0  0  0  0  0  0  0  0  0
   -4.2485   -0.3102   -4.2127 H   0  0  0  0  0  0  0  0  0  0  0  0
   -4.4714    1.3961   -2.8775 C   0  0  0  0  0  0  0  0  0  0  0  0
   -5.4445    1.7008   -3.2906 H   0  0  0  0  0  0  0  0  0  0  0  0
   -3.8984    2.1400   -1.8392 C   0  0  0  0  0  0  0  0  0  0  0  0
   -4.4037    3.0237   -1.4232 H   0  0  0  0  0  0  0  0  0  0  0  0
   -2.6525    1.7630   -1.3094 C   0  0  0  0  0  0  0  0  0  0  0  0
    0.2332    1.0485   -1.2923 C   0  0  0  0  0  3  0  0  0  0  0  0
    0.0417    1.9874   -1.8466 H   0  0  0  0  0  0  0  0  0  0  0  0
    4.7875    3.0908   -0.6786 C   0  0  0  0  0  0  0  0  0  0  0  0
    5.3013    3.4891    0.7240 C   0  0  0  0  0  0  0  0  0  0  0  0
    4.4656    3.8177    1.3742 H   0  0  0  0  0  0  0  0  0  0  0  0
    6.0277    4.3239    0.6460 H   0  0  0  0  0  0  0  0  0  0  0  0
    5.8127    2.6468    1.2313 H   0  0  0  0  0  0  0  0  0  0  0  0
    5.9758    2.6377   -1.5571 C   0  0  0  0  0  0  0  0  0  0  0  0
    5.6324    2.3462   -2.5701 H   0  0  0  0  0  0  0  0  0  0  0  0
    6.5081    1.7705   -1.1180 H   0  0  0  0  0  0  0  0  0  0  0  0
    6.7111    3.4613   -1.6655 H   0  0  0  0  0  0  0  0  0  0  0  0
    4.1407    4.3247   -1.3302 C   0  0  0  0  0  0  0  0  0  0  0  0
    3.7727    4.1063   -2.3531 H   0  0  0  0  0  0  0  0  0  0  0  0
    4.8868    5.1399   -1.4133 H   0  0  0  0  0  0  0  0  0  0  0  0
    3.2920    4.7109   -0.7302 H   0  0  0  0  0  0  0  0  0  0  0  0
    3.9296   -1.7230    0.8522 C   0  0  0  0  0  0  0  0  0  0  0  0
    5.4280   -1.6191    1.1912 C   0  0  0  0  0  0  0  0  0  0  0  0
    5.7711   -2.5806    1.6214 H   0  0  0  0  0  0  0  0  0  0  0  0
    5.6330   -0.8297    1.9427 H   0  0  0  0  0  0  0  0  0  0  0  0
    6.0477   -1.4181    0.2937 H   0  0  0  0  0  0  0  0  0  0  0  0
    3.7476   -2.8852   -0.1535 C   0  0  0  0  0  0  0  0  0  0  0  0
    4.1311   -3.8272    0.2890 H   0  0  0  0  0  0  0  0  0  0  0  0
    4.3139   -2.6908   -1.0869 H   0  0  0  0  0  0  0  0  0  0  0  0
    2.6861   -3.0428   -0.4187 H   0  0  0  0  0  0  0  0  0  0  0  0
    3.1652   -2.0271    2.1627 C   0  0  0  0  0  0  0  0  0  0  0  0
    3.5933   -2.9309    2.6425 H   0  0  0  0  0  0  0  0  0  0  0  0
    2.0921   -2.2207    1.9865 H   0  0  0  0  0  0  0  0  0  0  0  0
    3.2539   -1.1846    2.8778 H   0  0  0  0  0  0  0  0  0  0  0  0
   -2.0263    2.5088   -0.3386 O   0  0  0  0  0  0  0  0  0  0  0  0
   -2.7097    2.8257    0.8249 C   0  0  0  0  0  0  0  0  0  0  0  0
   -3.6460    1.9506    1.4010 C   0  0  0  0  0  0  0  0  0  0  0  0
   -3.8702    0.9877    0.9194 H   0  0  0  0  0  0  0  0  0  0  0  0
   -4.2589    2.3138    2.6083 C   0  0  0  0  0  0  0  0  0  0  0  0
   -4.9855    1.6266    3.0677 H   0  0  0  0  0  0  0  0  0  0  0  0
   -3.9400    3.5275    3.2392 C   0  0  0  0  0  0  0  0  0  0  0  0
   -4.4233    3.8014    4.1885 H   0  0  0  0  0  0  0  0  0  0  0  0
   -2.9941    4.3852    2.6546 C   0  0  0  0  0  0  0  0  0  0  0  0
   -2.7342    5.3368    3.1429 H   0  0  0  0  0  0  0  0  0  0  0  0
   -2.3767    4.0405    1.4438 C   0  0  0  0  0  0  0  0  0  0  0  0
   -1.6338    4.6949    0.9657 H   0  0  0  0  0  0  0  0  0  0  0  0
  3  1  1  0  0  0  0
  3 10  1  0  0  0  0
  4  3  2  0  0  0  0
  5  4  1  0  0  0  0
  5  7  2  0  0  0  0
  6  5  1  0  0  0  0
  7  8  1  0  0  0  0
  8 10  2  0  0  0  0
  8  9  1  0  0  0  0
 10 36  1  0  0  0  0
 11 20  1  0  0  0  0
 11  2  1  0  0  0  0
 12 11  2  0  0  0  0
 13 12  1  0  0  0  0
 14 16  2  0  0  0  0
 14 12  1  0  0  0  0
 15 14  1  0  0  0  0
 16 18  1  0  0  0  0
 17 16  1  0  0  0  0
 18 19  1  0  0  0  0
 18 20  2  0  0  0  0
 20 49  1  0  0  0  0
 21  2  1  0  0  0  0
 21  4  1  0  0  0  0
 22 21  1  0  0  0  0
 23  7  1  0  0  0  0
 23 24  1  0  0  0  0
 24 27  1  0  0  0  0
 24 25  1  0  0  0  0
 26 24  1  0  0  0  0
 28 30  1  0  0  0  0
 28 23  1  0  0  0  0
 29 28  1  0  0  0  0
 31 28  1  0  0  0  0
 32 35  1  0  0  0  0
 32 23  1  0  0  0  0
 33 32  1  0  0  0  0
 34 32  1  0  0  0  0
 36 37  1  0  0  0  0
 36 45  1  0  0  0  0
 37 38  1  0  0  0  0
 37 39  1  0  0  0  0
 40 37  1  0  0  0  0
 41 42  1  0  0  0  0
 41 36  1  0  0  0  0
 43 41  1  0  0  0  0
 44 41  1  0  0  0  0
 45 46  1  0  0  0  0
 45 48  1  0  0  0  0
 47 45  1  0  0  0  0
 49 50  1  0  0  0  0
 50 51  2  0  0  0  0
 50 59  1  0  0  0  0
 51 53  1  0  0  0  0
 52 51  1  0  0  0  0
 53 54  1  0  0  0  0
 53 55  2  0  0  0  0
 55 56  1  0  0  0  0
 57 58  1  0  0  0  0
 57 55  1  0  0  0  0
 59 57  2  0  0  0  0
 60 59  1  0  0  0  0
M  CHG  1   1  -1
M  END
