1,2
 OpenBabel05122313063D

 34 35  0  0  1  0  0  0  0  0999 V2000
    1.0694    1.6060   -0.8149 N   0  0  0  0  0  2  0  0  0  0  0  0
    1.5774   -1.0902   -0.8989 O   0  5  0  0  0  0  0  0  0  0  0  0
    2.8186   -0.7549   -1.0862 C   0  0  0  0  0  0  0  0  0  0  0  0
    3.8164   -1.7784   -1.2242 C   0  0  0  0  0  0  0  0  0  0  0  0
    5.1634   -1.4840   -1.4171 C   0  0  0  0  0  0  0  0  0  0  0  0
    5.8908   -2.2994   -1.5255 H   0  0  0  0  0  0  0  0  0  0  0  0
    5.5873   -0.1369   -1.4689 C   0  0  0  0  0  0  0  0  0  0  0  0
    4.6643    0.8927   -1.3275 C   0  0  0  0  0  3  0  0  0  0  0  0
    4.9984    1.9398   -1.3530 H   0  0  0  0  0  0  0  0  0  0  0  0
    3.2881    0.5997   -1.1433 C   0  0  0  0  0  0  0  0  0  0  0  0
    2.3713    1.6823   -0.9277 C   0  0  0  0  0  0  0  0  0  0  0  0
    2.8307    2.6831   -0.8084 H   0  0  0  0  0  0  0  0  0  0  0  0
    0.3841    2.8196   -0.3703 C   0  0  0  0  0  0  0  0  0  0  0  0
   -0.5201    2.9683   -0.9865 H   0  0  0  0  0  0  0  0  0  0  0  0
    1.0617    3.6922   -0.4934 H   0  0  0  0  0  0  0  0  0  0  0  0
   -0.0439    2.7121    1.1201 C   0  0  2  0  0  0  0  0  0  0  0  0
   -0.6809    1.8040    1.1813 H   0  0  0  0  0  0  0  0  0  0  0  0
   -0.9087    3.9205    1.4892 C   0  0  0  0  0  0  0  0  0  0  0  0
   -1.2085    3.8849    2.5551 H   0  0  0  0  0  0  0  0  0  0  0  0
   -1.8243    3.9374    0.8664 H   0  0  0  0  0  0  0  0  0  0  0  0
   -0.3763    4.8794    1.3199 H   0  0  0  0  0  0  0  0  0  0  0  0
    1.1653    2.4913    2.0157 C   0  0  0  0  0  0  0  0  0  0  0  0
    1.7163    1.1966    2.1421 C   0  0  0  0  0  0  0  0  0  0  0  0
    1.2423    0.3629    1.6010 H   0  0  0  0  0  0  0  0  0  0  0  0
    2.8665    0.9636    2.9078 C   0  0  0  0  0  0  0  0  0  0  0  0
    3.2742   -0.0562    2.9817 H   0  0  0  0  0  0  0  0  0  0  0  0
    3.4952    2.0291    3.5712 C   0  0  0  0  0  0  0  0  0  0  0  0
    4.3983    1.8522    4.1747 H   0  0  0  0  0  0  0  0  0  0  0  0
    2.9609    3.3217    3.4587 C   0  0  0  0  0  0  0  0  0  0  0  0
    3.4436    4.1640    3.9779 H   0  0  0  0  0  0  0  0  0  0  0  0
    1.8091    3.5496    2.6883 C   0  0  0  0  0  0  0  0  0  0  0  0
    1.4061    4.5707    2.6155 H   0  0  0  0  0  0  0  0  0  0  0  0
    3.3065   -3.4454   -1.1582 Cl  0  0  0  0  0  0  0  0  0  0  0  0
    7.2815    0.2156   -1.7024 Cl  0  0  0  0  0  0  0  0  0  0  0  0
  1 13  1  0  0  0  0
  3  2  1  0  0  0  0
  4 33  1  0  0  0  0
  4  3  2  0  0  0  0
  5  4  1  0  0  0  0
  6  5  1  0  0  0  0
  7  5  2  0  0  0  0
  7  8  1  0  0  0  0
  8 10  1  0  0  0  0
  9  8  1  0  0  0  0
 10  3  1  0  0  0  0
 10 11  2  0  0  0  0
 11  1  1  0  0  0  0
 11 12  1  0  0  0  0
 13 16  1  0  0  0  0
 14 13  1  0  0  0  0
 15 13  1  0  0  0  0
 16 17  1  1  0  0  0
 16 18  1  0  0  0  0
 16 22  1  0  0  0  0
 18 19  1  0  0  0  0
 20 18  1  0  0  0  0
 21 18  1  0  0  0  0
 22 23  2  0  0  0  0
 22 31  1  0  0  0  0
 23 25  1  0  0  0  0
 24 23  1  0  0  0  0
 25 26  1  0  0  0  0
 25 27  2  0  0  0  0
 27 28  1  0  0  0  0
 29 27  1  0  0  0  0
 29 30  1  0  0  0  0
 31 29  2  0  0  0  0
 32 31  1  0  0  0  0
 34  7  1  0  0  0  0
M  CHG  1   2  -1
M  END
