1,25
 OpenBabel05122313063D

 35 36  0  0  0  0  0  0  0  0999 V2000
   -1.1989    1.4351   -0.1307 N   0  0  0  0  0  2  0  0  0  0  0  0
   -0.8740    2.9022   -0.2293 C   0  0  0  0  0  0  0  0  0  0  0  0
    0.3149    3.2793    0.6577 C   0  0  0  0  0  0  0  0  0  0  0  0
    1.2675    2.9850    0.1897 H   0  0  0  0  0  0  0  0  0  0  0  0
    0.3389    4.3791    0.7942 H   0  0  0  0  0  0  0  0  0  0  0  0
    0.2432    2.7890    1.6461 H   0  0  0  0  0  0  0  0  0  0  0  0
   -0.6018    3.2243   -1.7109 C   0  0  0  0  0  0  0  0  0  0  0  0
   -1.4917    3.0204   -2.3392 H   0  0  0  0  0  0  0  0  0  0  0  0
   -0.3221    4.2889   -1.8312 H   0  0  0  0  0  0  0  0  0  0  0  0
    0.2294    2.5884   -2.0595 H   0  0  0  0  0  0  0  0  0  0  0  0
   -2.2039    3.5735    0.2701 C   0  0  0  0  0  0  0  0  0  0  0  0
   -2.2959    3.6937    1.8045 C   0  0  0  0  0  0  0  0  0  0  0  0
   -1.9389    2.7764    2.3149 H   0  0  0  0  0  0  0  0  0  0  0  0
   -1.6880    4.5486    2.1562 H   0  0  0  0  0  0  0  0  0  0  0  0
   -3.3531    3.8831    2.0757 H   0  0  0  0  0  0  0  0  0  0  0  0
   -2.5968    4.8852   -0.3972 C   0  0  0  0  0  0  0  0  0  0  0  0
   -1.8438    5.6631   -0.1650 H   0  0  0  0  0  0  0  0  0  0  0  0
   -2.6883    4.7936   -1.4944 H   0  0  0  0  0  0  0  0  0  0  0  0
   -3.5751    5.2171   -0.0016 H   0  0  0  0  0  0  0  0  0  0  0  0
   -3.1865    2.4966   -0.1009 N   0  0  0  0  0  0  0  0  0  0  0  0
   -4.4204    2.7040   -0.1634 O   0  0  0  0  0  1  0  0  0  0  0  0
   -2.5336    1.2811   -0.1294 C   0  0  0  0  0  0  0  0  0  0  0  0
   -3.2507    0.0258    0.0192 C   0  0  0  0  0  0  0  0  0  0  0  0
   -2.5637   -1.0205    0.7213 C   0  0  0  0  0  0  0  0  0  0  0  0
   -1.2942   -0.9216    1.0742 O   0  5  0  0  0  0  0  0  0  0  0  0
   -3.2964   -2.1831    1.0925 C   0  0  0  0  0  0  0  0  0  0  0  0
   -2.7770   -2.9605    1.6703 H   0  0  0  0  0  0  0  0  0  0  0  0
   -4.6308   -2.3347    0.7293 C   0  0  0  0  0  0  0  0  0  0  0  0
   -5.2073   -3.2320    0.9916 H   0  0  0  0  0  0  0  0  0  0  0  0
   -5.2626   -1.3175   -0.0075 C   0  0  0  0  0  0  0  0  0  0  0  0
   -6.6676   -1.4928   -0.4180 N   0  0  0  0  0  0  0  0  0  0  0  0
   -7.2338   -2.5322   -0.0700 O   0  0  0  0  0  0  0  0  0  0  0  0
   -7.1850   -0.5938   -1.0829 O   0  0  0  0  0  0  0  0  0  0  0  0
   -4.6004   -0.1357   -0.3469 C   0  0  0  0  0  3  0  0  0  0  0  0
   -5.1458    0.6517   -0.8779 H   0  0  0  0  0  0  0  0  0  0  0  0
  1 22  1  0  0  0  0
  2  1  1  0  0  0  0
  2 11  1  0  0  0  0
  2  3  1  0  0  0  0
  3  5  1  0  0  0  0
  3  6  1  0  0  0  0
  4  3  1  0  0  0  0
  7  2  1  0  0  0  0
  8  7  1  0  0  0  0
  9  7  1  0  0  0  0
 10  7  1  0  0  0  0
 11 12  1  0  0  0  0
 12 15  1  0  0  0  0
 12 14  1  0  0  0  0
 12 13  1  0  0  0  0
 16 17  1  0  0  0  0
 16 19  1  0  0  0  0
 16 11  1  0  0  0  0
 18 16  1  0  0  0  0
 20 11  1  0  0  0  0
 21 20  1  0  0  0  0
 22 20  1  0  0  0  0
 22 23  2  0  0  0  0
 23 24  1  0  0  0  0
 24 25  1  0  0  0  0
 24 26  2  0  0  0  0
 26 27  1  0  0  0  0
 28 29  1  0  0  0  0
 28 26  1  0  0  0  0
 30 28  2  0  0  0  0
 31 32  2  0  0  0  0
 31 30  1  0  0  0  0
 33 31  2  0  0  0  0
 34 30  1  0  0  0  0
 34 23  1  0  0  0  0
 35 34  1  0  0  0  0
M  CHG  1  25  -1
M  END
