1,25
 OpenBabel05122313063D

 35 36  0  0  1  0  0  0  0  0999 V2000
    1.1986   -1.4354    0.1306 N   0  0  0  0  0  2  0  0  0  0  0  0
    0.8747   -2.9025    0.2316 C   0  0  0  0  0  0  0  0  0  0  0  0
   -0.3131   -3.2819   -0.6561 C   0  0  0  0  0  0  0  0  0  0  0  0
   -1.2663   -2.9864   -0.1900 H   0  0  0  0  0  0  0  0  0  0  0  0
   -0.3368   -4.3820   -0.7900 H   0  0  0  0  0  0  0  0  0  0  0  0
   -0.2401   -2.7939   -1.6455 H   0  0  0  0  0  0  0  0  0  0  0  0
    0.6010   -3.2221    1.7135 C   0  0  0  0  0  0  0  0  0  0  0  0
    1.4901   -3.0163    2.3424 H   0  0  0  0  0  0  0  0  0  0  0  0
    0.3223   -4.2868    1.8354 H   0  0  0  0  0  0  0  0  0  0  0  0
   -0.2312   -2.5866    2.0601 H   0  0  0  0  0  0  0  0  0  0  0  0
    2.2055   -3.5740   -0.2651 C   0  0  0  0  0  0  0  0  0  0  0  0
    2.2992   -3.6979   -1.7990 C   0  0  0  0  0  0  0  0  0  0  0  0
    1.9424   -2.7818   -2.3119 H   0  0  0  0  0  0  0  0  0  0  0  0
    1.6919   -4.5538   -2.1494 H   0  0  0  0  0  0  0  0  0  0  0  0
    3.3568   -3.8875   -2.0687 H   0  0  0  0  0  0  0  0  0  0  0  0
    2.5988   -4.8839    0.4056 C   0  0  0  0  0  0  0  0  0  0  0  0
    1.8466   -5.6629    0.1745 H   0  0  0  0  0  0  0  0  0  0  0  0
    2.6891   -4.7897    1.5028 H   0  0  0  0  0  0  0  0  0  0  0  0
    3.5777   -5.2160    0.0117 H   0  0  0  0  0  0  0  0  0  0  0  0
    3.1870   -2.4955    0.1043 N   0  0  0  0  0  0  0  0  0  0  0  0
    4.4210   -2.7020    0.1680 O   0  0  0  0  0  1  0  0  0  0  0  0
    2.5332   -1.2805    0.1299 C   0  0  0  0  0  0  0  0  0  0  0  0
    3.2496   -0.0249   -0.0209 C   0  0  0  0  0  0  0  0  0  0  0  0
    2.5620    1.0200   -0.7244 C   0  0  2  0  0  3  0  0  0  0  0  0
    1.2924    0.9203   -1.0767 O   0  0  0  0  0  1  0  0  0  0  0  0
    3.2941    2.1824   -1.0973 C   0  0  0  0  0  0  0  0  0  0  0  0
    2.7743    2.9588   -1.6760 H   0  0  0  0  0  0  0  0  0  0  0  0
    4.6285    2.3353   -0.7345 C   0  0  0  0  0  0  0  0  0  0  0  0
    5.2046    3.2325   -0.9982 H   0  0  0  0  0  0  0  0  0  0  0  0
    5.2608    1.3194    0.0038 C   0  0  0  0  0  0  0  0  0  0  0  0
    6.6658    1.4961    0.4139 N   0  0  0  0  0  0  0  0  0  0  0  0
    7.2314    2.5352    0.0644 O   0  0  0  0  0  0  0  0  0  0  0  0
    7.1837    0.5982    1.0801 O   0  0  0  0  0  0  0  0  0  0  0  0
    4.5992    0.1379    0.3449 C   0  0  0  0  0  0  0  0  0  0  0  0
    5.1451   -0.6485    0.8771 H   0  0  0  0  0  0  0  0  0  0  0  0
  1  2  1  0  0  0  0
  2  7  1  0  0  0  0
  3  4  1  0  0  0  0
  3  2  1  0  0  0  0
  5  3  1  0  0  0  0
  6  3  1  0  0  0  0
  7  9  1  0  0  0  0
  7 10  1  0  0  0  0
  7  8  1  0  0  0  0
 11 20  1  0  0  0  0
 11  2  1  0  0  0  0
 11 16  1  0  0  0  0
 12 11  1  0  0  0  0
 13 12  1  0  0  0  0
 14 12  1  0  0  0  0
 15 12  1  0  0  0  0
 16 18  1  0  0  0  0
 17 16  1  0  0  0  0
 19 16  1  0  0  0  0
 20 22  1  0  0  0  0
 20 21  1  0  0  0  0
 22  1  1  0  0  0  0
 23 22  2  0  0  0  0
 23 34  1  0  0  0  0
 24 25  1  6  0  0  0
 24 23  1  0  0  0  0
 26 28  2  0  0  0  0
 26 24  1  0  0  0  0
 27 26  1  0  0  0  0
 28 30  1  0  0  0  0
 29 28  1  0  0  0  0
 30 34  2  0  0  0  0
 30 31  1  0  0  0  0
 31 33  2  0  0  0  0
 32 31  2  0  0  0  0
 34 35  1  0  0  0  0
M  END
