13,14
 OpenBabel05122313063D

 15 15  0  0  0  0  0  0  0  0999 V2000
   -2.8991   -0.5933   -0.0000 C   0  0  0  0  0  0  0  0  0  0  0  0
   -3.9792   -1.5332    0.0000 C   0  0  0  0  0  0  0  0  0  0  0  0
   -3.7085   -2.5989    0.0000 H   0  0  0  0  0  0  0  0  0  0  0  0
   -5.3058   -1.1237    0.0000 C   0  0  0  0  0  0  0  0  0  0  0  0
   -6.1030   -1.8837    0.0000 H   0  0  0  0  0  0  0  0  0  0  0  0
   -5.6469    0.2519    0.0000 C   0  0  0  0  0  0  0  0  0  0  0  0
   -6.6997    0.5676    0.0000 H   0  0  0  0  0  0  0  0  0  0  0  0
   -4.6256    1.1904   -0.0000 C   0  0  0  0  0  3  0  0  0  0  0  0
   -4.8658    2.2660   -0.0000 H   0  0  0  0  0  0  0  0  0  0  0  0
   -3.2497    0.8139   -0.0000 C   0  0  0  0  0  0  0  0  0  0  0  0
   -2.2760    1.8696   -0.0000 C   0  0  0  0  0  0  0  0  0  0  0  0
   -2.6794    2.9015   -0.0001 H   0  0  0  0  0  0  0  0  0  0  0  0
   -0.9798    1.7183   -0.0000 N   0  0  0  0  0  2  0  0  0  0  0  0
   -1.6876   -1.0802    0.0000 O   0  5  0  0  0  0  0  0  0  0  0  0
   -0.4085    2.5727   -0.0001 H   0  0  0  0  0  0  0  0  0  0  0  0
  1  2  2  0  0  0  0
  1 14  1  0  0  0  0
  2  4  1  0  0  0  0
  3  2  1  0  0  0  0
  4  5  1  0  0  0  0
  6  4  2  0  0  0  0
  6  7  1  0  0  0  0
  8  6  1  0  0  0  0
  9  8  1  0  0  0  0
 10  8  1  0  0  0  0
 10  1  1  0  0  0  0
 11 13  1  0  0  0  0
 11 10  2  0  0  0  0
 12 11  1  0  0  0  0
 15 13  1  0  0  0  0
M  CHG  1  14  -1
M  END
