1,2
 OpenBabel05122313063D

 18 18  0  0  1  0  0  0  0  0999 V2000
   -1.1694   -0.1771    1.2735 N   0  0  0  0  0  0  0  0  0  0  0  0
   -1.7501    0.6733   -1.2083 O   0  0  0  0  0  1  0  0  0  0  0  0
   -2.7310    0.1612   -0.6123 C   0  0  2  0  0  3  0  0  0  0  0  0
   -2.5561   -0.4716    0.7547 C   0  0  2  0  0  0  0  0  0  0  0  0
   -3.5427    0.0186    1.8450 C   0  0  0  0  0  0  0  0  0  0  0  0
   -3.9242    1.0287    1.5893 H   0  0  0  0  0  0  0  0  0  0  0  0
   -4.4144   -0.6545    1.9551 H   0  0  0  0  0  0  0  0  0  0  0  0
   -2.6743    0.0890    3.1099 C   0  0  0  0  0  0  0  0  0  0  0  0
   -2.5633   -0.9159    3.5678 H   0  0  0  0  0  0  0  0  0  0  0  0
   -3.0905    0.7651    3.8807 H   0  0  0  0  0  0  0  0  0  0  0  0
   -1.3346    0.5725    2.5553 C   0  0  0  0  0  0  0  0  0  0  0  0
   -1.3660    1.6571    2.3275 H   0  0  0  0  0  0  0  0  0  0  0  0
   -0.4647    0.3774    3.2095 H   0  0  0  0  0  0  0  0  0  0  0  0
   -3.9483    0.1497   -1.1694 N   0  0  0  0  0  0  0  0  0  0  0  0
   -2.6224   -1.5695    0.5980 H   0  0  0  0  0  0  0  0  0  0  0  0
   -0.7410   -1.0975    1.4714 H   0  0  0  0  0  0  0  0  0  0  0  0
   -4.7512   -0.2715   -0.7024 H   0  0  0  0  0  0  0  0  0  0  0  0
   -4.0680    0.5107   -2.1190 H   0  0  0  0  0  0  0  0  0  0  0  0
  1 16  1  0  0  0  0
  1 11  1  0  0  0  0
  3  2  1  6  0  0  0
  3  4  1  0  0  0  0
  4 15  1  6  0  0  0
  4  1  1  0  0  0  0
  4  5  1  0  0  0  0
  5  7  1  0  0  0  0
  5  8  1  0  0  0  0
  6  5  1  0  0  0  0
  8  9  1  0  0  0  0
  8 10  1  0  0  0  0
 11  8  1  0  0  0  0
 11 13  1  0  0  0  0
 12 11  1  0  0  0  0
 14 17  1  0  0  0  0
 14  3  1  0  0  0  0
 18 14  1  0  0  0  0
M  END
