1,2
 OpenBabel05122313063D

 32 33  0  0  1  0  0  0  0  0999 V2000
   -1.9607   -0.2794   -0.3659 O   0  5  0  0  0  0  0  0  0  0  0  0
    0.1246   -2.0429   -0.2886 N   0  0  0  0  0  2  0  0  0  0  0  0
   -4.0913   -1.7232    2.6982 Cl  0  0  0  0  0  0  0  0  0  0  0  0
   -4.0674   -0.1664   -2.5546 Cl  0  0  0  0  0  0  0  0  0  0  0  0
   -1.6509   -5.1476    0.2033 F   0  0  0  0  0  0  0  0  0  0  0  0
    0.1713   -4.8618   -0.9420 F   0  0  0  0  0  0  0  0  0  0  0  0
    0.1920   -4.6309    1.2338 F   0  0  0  0  0  0  0  0  0  0  0  0
    2.2761   -2.5907    0.7585 C   0  0  0  0  0  0  0  0  0  0  0  0
    1.8053   -2.4525    1.7411 H   0  0  0  0  0  0  0  0  0  0  0  0
    3.6473   -2.8529    0.6399 C   0  0  0  0  0  0  0  0  0  0  0  0
    4.2583   -2.9515    1.5496 H   0  0  0  0  0  0  0  0  0  0  0  0
    4.2417   -2.9677   -0.6265 C   0  0  0  0  0  0  0  0  0  0  0  0
    5.3205   -3.1636   -0.7137 H   0  0  0  0  0  0  0  0  0  0  0  0
    3.4562   -2.8140   -1.7801 C   0  0  0  0  0  0  0  0  0  0  0  0
    3.9169   -2.8857   -2.7768 H   0  0  0  0  0  0  0  0  0  0  0  0
    2.0855   -2.5465   -1.6744 C   0  0  0  0  0  0  0  0  0  0  0  0
    1.4652   -2.3847   -2.5665 H   0  0  0  0  0  0  0  0  0  0  0  0
    1.4934   -2.4476   -0.4026 C   0  0  0  0  0  0  0  0  0  0  0  0
   -0.8515   -2.8951   -0.0333 C   0  0  2  0  0  3  0  0  0  0  0  0
   -2.2290   -2.5554    0.1316 C   0  0  0  0  0  0  0  0  0  0  0  0
   -2.9343   -3.3573    0.3693 H   0  0  0  0  0  0  0  0  0  0  0  0
   -2.7269   -1.2707   -0.0469 C   0  0  0  0  0  0  0  0  0  0  0  0
   -4.1752   -0.9248    0.0743 C   0  0  0  0  0  0  0  0  0  0  0  0
   -4.8811   -1.0576    1.2930 C   0  0  0  0  0  0  0  0  0  0  0  0
   -6.2119   -0.6293    1.4230 C   0  0  0  0  0  0  0  0  0  0  0  0
   -6.7191   -0.7428    2.3904 H   0  0  0  0  0  0  0  0  0  0  0  0
   -6.8605   -0.0580    0.3212 C   0  0  0  0  0  0  0  0  0  0  0  0
   -7.9034    0.2786    0.4179 H   0  0  0  0  0  0  0  0  0  0  0  0
   -6.1946    0.0869   -0.9030 C   0  0  0  0  0  0  0  0  0  0  0  0
   -6.6931    0.5259   -1.7777 H   0  0  0  0  0  0  0  0  0  0  0  0
   -4.8638   -0.3399   -1.0172 C   0  0  0  0  0  0  0  0  0  0  0  0
   -0.5270   -4.4007    0.1134 C   0  0  0  0  0  0  0  0  0  0  0  0
  1 22  1  0  0  0  0
  4 31  1  0  0  0  0
  6 32  1  0  0  0  0
  8  9  1  0  0  0  0
 10  8  1  0  0  0  0
 10 11  1  0  0  0  0
 12 10  2  0  0  0  0
 13 12  1  0  0  0  0
 14 16  2  0  0  0  0
 14 12  1  0  0  0  0
 15 14  1  0  0  0  0
 16 18  1  0  0  0  0
 17 16  1  0  0  0  0
 18  2  1  0  0  0  0
 18  8  2  0  0  0  0
 19  2  1  1  0  0  0
 19 32  1  0  0  0  0
 19 20  1  0  0  0  0
 20 21  1  0  0  0  0
 22 23  1  0  0  0  0
 22 20  2  0  0  0  0
 23 24  1  0  0  0  0
 24 25  2  0  0  0  0
 24  3  1  0  0  0  0
 25 26  1  0  0  0  0
 27 28  1  0  0  0  0
 27 25  1  0  0  0  0
 29 27  2  0  0  0  0
 30 29  1  0  0  0  0
 31 29  1  0  0  0  0
 31 23  2  0  0  0  0
 32  5  1  0  0  0  0
 32  7  1  0  0  0  0
M  CHG  1   1  -1
M  END
