1,5
 OpenBabel05122313063D

 34 34  0  0  0  0  0  0  0  0999 V2000
   -0.0837    1.0874    0.5628 N   0  0  0  0  0  2  0  0  0  0  0  0
   -2.9678    1.8355   -0.0674 N   0  3  0  0  0  0  0  0  0  0  0  0
   -3.1274    0.9397    0.4873 H   0  0  0  0  0  0  0  0  0  0  0  0
   -2.4370    1.3241   -0.9218 H   0  0  0  0  0  0  0  0  0  0  0  0
    0.8298   -0.9189   -1.2788 O   0  5  0  0  0  0  0  0  0  0  0  0
    5.9919    0.6769   -0.0900 O   0  0  0  0  0  0  0  0  0  0  0  0
    2.2561    0.5778   -0.0068 C   0  0  0  0  0  0  0  0  0  0  0  0
    2.0327   -0.4857   -0.9330 C   0  0  0  0  0  0  0  0  0  0  0  0
    3.1598   -1.1052   -1.5332 C   0  0  0  0  0  0  0  0  0  0  0  0
    2.9702   -1.9233   -2.2422 H   0  0  0  0  0  0  0  0  0  0  0  0
    4.4541   -0.6962   -1.2350 C   0  0  0  0  0  0  0  0  0  0  0  0
    5.3253   -1.1804   -1.7003 H   0  0  0  0  0  0  0  0  0  0  0  0
    4.6860    0.3558   -0.3147 C   0  0  0  0  0  0  0  0  0  0  0  0
    3.5884    0.9798    0.2882 C   0  0  0  0  0  0  0  0  0  0  0  0
    3.7291    1.7987    1.0080 H   0  0  0  0  0  0  0  0  0  0  0  0
    6.2715    1.7170    0.8239 C   0  0  0  0  0  0  0  0  0  0  0  0
    5.8339    2.6879    0.4965 H   0  0  0  0  0  0  0  0  0  0  0  0
    7.3722    1.8158    0.8633 H   0  0  0  0  0  0  0  0  0  0  0  0
    5.8934    1.4858    1.8461 H   0  0  0  0  0  0  0  0  0  0  0  0
    1.1901    1.2928    0.6714 C   0  0  0  0  0  3  0  0  0  0  0  0
    1.5476    2.0904    1.3678 H   0  0  0  0  0  0  0  0  0  0  0  0
   -0.9493    1.8913    1.4113 C   0  0  0  0  0  0  0  0  0  0  0  0
   -0.3577    2.6180    2.0178 H   0  0  0  0  0  0  0  0  0  0  0  0
   -1.4645    1.2075    2.1230 H   0  0  0  0  0  0  0  0  0  0  0  0
   -2.0110    2.6986    0.6557 C   0  0  0  0  0  0  0  0  0  0  0  0
   -2.5691    3.3131    1.3934 H   0  0  0  0  0  0  0  0  0  0  0  0
   -1.5396    3.3894   -0.0742 H   0  0  0  0  0  0  0  0  0  0  0  0
   -4.2262    2.4614   -0.5257 C   0  0  0  0  0  0  0  0  0  0  0  0
   -4.7660    2.8640    0.3586 H   0  0  0  0  0  0  0  0  0  0  0  0
   -3.9596    3.3271   -1.1682 H   0  0  0  0  0  0  0  0  0  0  0  0
   -5.0723    1.4487   -1.2864 C   0  0  0  0  0  0  0  0  0  0  0  0
   -4.5162    1.0435   -2.1547 H   0  0  0  0  0  0  0  0  0  0  0  0
   -6.0039    1.9226   -1.6503 H   0  0  0  0  0  0  0  0  0  0  0  0
   -5.3486    0.5933   -0.6376 H   0  0  0  0  0  0  0  0  0  0  0  0
  1 20  1  0  0  0  0
  1 22  1  0  0  0  0
  2  3  1  0  0  0  0
  2 25  1  0  0  0  0
  4  2  1  0  0  0  0
  5  8  1  0  0  0  0
  6 16  1  0  0  0  0
  7 14  1  0  0  0  0
  7 20  1  0  0  0  0
  8  7  2  0  0  0  0
  9 11  2  0  0  0  0
  9  8  1  0  0  0  0
 10  9  1  0  0  0  0
 11 13  1  0  0  0  0
 12 11  1  0  0  0  0
 13  6  1  0  0  0  0
 13 14  2  0  0  0  0
 14 15  1  0  0  0  0
 16 18  1  0  0  0  0
 16 19  1  0  0  0  0
 17 16  1  0  0  0  0
 20 21  1  0  0  0  0
 22 23  1  0  0  0  0
 22 24  1  0  0  0  0
 25 26  1  0  0  0  0
 25 22  1  0  0  0  0
 27 25  1  0  0  0  0
 28  2  1  0  0  0  0
 28 29  1  0  0  0  0
 30 28  1  0  0  0  0
 31 34  1  0  0  0  0
 31 28  1  0  0  0  0
 32 31  1  0  0  0  0
 33 31  1  0  0  0  0
M  CHG  2   2   1   5  -1
M  END
