1,2
 OpenBabel05122313063D

 27 26  0  0  1  0  0  0  0  0999 V2000
   -1.6268   -0.1791   -1.8406 O   0  5  0  0  0  0  0  0  0  0  0  0
   -0.5510    1.6501    0.2748 N   0  0  0  0  0  2  0  0  0  0  0  0
   -3.8604    0.2087   -2.5082 C   0  0  0  0  0  0  0  0  0  0  0  0
   -4.1835   -0.8288   -2.2799 H   0  0  0  0  0  0  0  0  0  0  0  0
   -3.5578    0.2155   -3.5751 H   0  0  0  0  0  0  0  0  0  0  0  0
   -4.7169    0.8929   -2.3644 H   0  0  0  0  0  0  0  0  0  0  0  0
   -2.6638    0.5583   -1.6472 C   0  0  0  0  0  0  0  0  0  0  0  0
   -2.7771    1.6165   -0.7235 C   0  0  0  0  0  0  0  0  0  0  0  0
   -3.7470    2.1309   -0.6996 H   0  0  0  0  0  0  0  0  0  0  0  0
   -1.7832    2.1426    0.1566 C   0  0  1  0  0  3  0  0  0  0  0  0
   -2.1903    3.3330    0.9999 C   0  0  0  0  0  0  0  0  0  0  0  0
   -2.0612    3.1184    2.0812 H   0  0  0  0  0  0  0  0  0  0  0  0
   -3.2430    3.6142    0.8212 H   0  0  0  0  0  0  0  0  0  0  0  0
   -1.5520    4.2139    0.7784 H   0  0  0  0  0  0  0  0  0  0  0  0
    0.3939    2.2683    1.2020 C   0  0  0  0  0  0  0  0  0  0  0  0
    0.0436    2.1468    2.2566 H   0  0  0  0  0  0  0  0  0  0  0  0
    0.4506    3.3695    1.0342 H   0  0  0  0  0  0  0  0  0  0  0  0
    1.7922    1.6730    1.0603 C   0  0  0  0  0  0  0  0  0  0  0  0
    2.1281    1.8092    0.0101 H   0  0  0  0  0  0  0  0  0  0  0  0
    1.7346    0.5731    1.2164 H   0  0  0  0  0  0  0  0  0  0  0  0
    2.8274    2.2630    2.0181 C   0  0  0  0  0  0  0  0  0  0  0  0
    2.8812    3.3656    1.8749 H   0  0  0  0  0  0  0  0  0  0  0  0
    2.4902    2.1131    3.0685 H   0  0  0  0  0  0  0  0  0  0  0  0
    4.2146    1.6479    1.8262 C   0  0  0  0  0  0  0  0  0  0  0  0
    4.9570    2.0683    2.5341 H   0  0  0  0  0  0  0  0  0  0  0  0
    4.5902    1.8253    0.7968 H   0  0  0  0  0  0  0  0  0  0  0  0
    4.1872    0.5480    1.9727 H   0  0  0  0  0  0  0  0  0  0  0  0
  1  7  1  0  0  0  0
  2 15  1  0  0  0  0
  3  6  1  0  0  0  0
  3  4  1  0  0  0  0
  3  7  1  0  0  0  0
  5  3  1  0  0  0  0
  7  8  2  0  0  0  0
  8  9  1  0  0  0  0
 10  8  1  1  0  0  0
 10  2  1  0  0  0  0
 10 11  1  0  0  0  0
 11 12  1  0  0  0  0
 13 11  1  0  0  0  0
 14 11  1  0  0  0  0
 15 16  1  0  0  0  0
 17 15  1  0  0  0  0
 18 15  1  0  0  0  0
 18 20  1  0  0  0  0
 18 21  1  0  0  0  0
 19 18  1  0  0  0  0
 21 23  1  0  0  0  0
 22 21  1  0  0  0  0
 24 27  1  0  0  0  0
 24 21  1  0  0  0  0
 24 25  1  0  0  0  0
 26 24  1  0  0  0  0
M  CHG  1   1  -1
M  END
