1,2
 OpenBabel05122313063D

 42 43  0  0  0  0  0  0  0  0999 V2000
   -1.2253   -1.9832   -0.2517 O   0  5  0  0  0  0  0  0  0  0  0  0
   -0.1069    0.6646   -0.2707 N   0  0  0  0  0  2  0  0  0  0  0  0
    3.2295    2.2497    0.2805 N   0  3  0  0  0  0  0  0  0  0  0  0
   -2.4978    0.0977   -0.1490 C   0  0  0  0  0  0  0  0  0  0  0  0
   -2.3406   -1.3455   -0.2088 C   0  0  0  0  0  0  0  0  0  0  0  0
   -3.5472   -2.1476   -0.2657 C   0  0  0  0  0  0  0  0  0  0  0  0
   -3.3939   -3.2336   -0.3456 H   0  0  0  0  0  0  0  0  0  0  0  0
   -4.7982   -1.5930   -0.2156 C   0  0  0  0  0  0  0  0  0  0  0  0
   -5.6915   -2.2374   -0.2570 H   0  0  0  0  0  0  0  0  0  0  0  0
   -4.9901   -0.1757   -0.0937 C   0  0  0  0  0  0  0  0  0  0  0  0
   -6.2954    0.3746   -0.0092 C   0  0  0  0  0  0  0  0  0  0  0  0
   -7.1547   -0.3133   -0.0540 H   0  0  0  0  0  0  0  0  0  0  0  0
   -6.4949    1.7435    0.1328 C   0  0  0  0  0  0  0  0  0  0  0  0
   -7.5114    2.1588    0.1987 H   0  0  0  0  0  0  0  0  0  0  0  0
   -5.3681    2.5919    0.2084 C   0  0  0  0  0  0  0  0  0  0  0  0
   -5.5060    3.6759    0.3435 H   0  0  0  0  0  0  0  0  0  0  0  0
   -4.0775    2.0725    0.1296 C   0  0  0  0  0  0  0  0  0  0  0  0
   -3.2352    2.7715    0.2298 H   0  0  0  0  0  0  0  0  0  0  0  0
   -3.8343    0.6796   -0.0444 C   0  0  0  0  0  0  0  0  0  0  0  0
   -1.3808    0.9781   -0.2891 C   0  0  0  0  0  3  0  0  0  0  0  0
   -1.6214    2.0480   -0.4726 H   0  0  0  0  0  0  0  0  0  0  0  0
    0.8860    1.6688   -0.5641 C   0  0  0  0  0  0  0  0  0  0  0  0
    0.4202    2.6507   -0.8217 H   0  0  0  0  0  0  0  0  0  0  0  0
    1.4599    1.3157   -1.4536 H   0  0  0  0  0  0  0  0  0  0  0  0
    1.8291    1.7946    0.6404 C   0  0  0  0  0  0  0  0  0  0  0  0
    1.9275    0.8046    1.1439 H   0  0  0  0  0  0  0  0  0  0  0  0
    1.4373    2.5032    1.3950 H   0  0  0  0  0  0  0  0  0  0  0  0
    3.2662    3.5301   -0.5165 C   0  0  0  0  0  0  0  0  0  0  0  0
    2.8241    3.2950   -1.5038 H   0  0  0  0  0  0  0  0  0  0  0  0
    4.3383    3.7554   -0.6812 H   0  0  0  0  0  0  0  0  0  0  0  0
    2.5629    4.6911    0.1653 C   0  0  0  0  0  0  0  0  0  0  0  0
    1.4699    4.5385    0.2460 H   0  0  0  0  0  0  0  0  0  0  0  0
    2.7259    5.6081   -0.4333 H   0  0  0  0  0  0  0  0  0  0  0  0
    2.9691    4.8837    1.1797 H   0  0  0  0  0  0  0  0  0  0  0  0
    4.0628    1.1497   -0.3716 C   0  0  0  0  0  0  0  0  0  0  0  0
    3.4166    0.6288   -1.1144 H   0  0  0  0  0  0  0  0  0  0  0  0
    4.8827    1.6706   -0.9045 H   0  0  0  0  0  0  0  0  0  0  0  0
    4.5836    0.1542    0.6444 C   0  0  0  0  0  0  0  0  0  0  0  0
    5.2452    0.6293    1.4007 H   0  0  0  0  0  0  0  0  0  0  0  0
    5.1767   -0.6068    0.1018 H   0  0  0  0  0  0  0  0  0  0  0  0
    3.7616   -0.3977    1.1514 H   0  0  0  0  0  0  0  0  0  0  0  0
    3.6920    2.4494    1.1856 H   0  0  0  0  0  0  0  0  0  0  0  0
  1  5  1  0  0  0  0
  3 25  1  0  0  0  0
  3 42  1  0  0  0  0
  4 19  1  0  0  0  0
  5  4  2  0  0  0  0
  6  8  2  0  0  0  0
  6  5  1  0  0  0  0
  7  6  1  0  0  0  0
  8 10  1  0  0  0  0
  9  8  1  0  0  0  0
 10 19  2  0  0  0  0
 10 11  1  0  0  0  0
 11 13  2  0  0  0  0
 12 11  1  0  0  0  0
 13 14  1  0  0  0  0
 13 15  1  0  0  0  0
 15 16  1  0  0  0  0
 17 15  2  0  0  0  0
 17 18  1  0  0  0  0
 19 17  1  0  0  0  0
 20  2  1  0  0  0  0
 20  4  1  0  0  0  0
 21 20  1  0  0  0  0
 22  2  1  0  0  0  0
 22 25  1  0  0  0  0
 23 22  1  0  0  0  0
 24 22  1  0  0  0  0
 25 26  1  0  0  0  0
 25 27  1  0  0  0  0
 28 31  1  0  0  0  0
 28  3  1  0  0  0  0
 29 28  1  0  0  0  0
 30 28  1  0  0  0  0
 31 32  1  0  0  0  0
 31 34  1  0  0  0  0
 33 31  1  0  0  0  0
 35  3  1  0  0  0  0
 35 38  1  0  0  0  0
 36 35  1  0  0  0  0
 37 35  1  0  0  0  0
 38 41  1  0  0  0  0
 38 39  1  0  0  0  0
 40 38  1  0  0  0  0
M  CHG  2   1  -1   3   1
M  END
