1,2
 OpenBabel05122313063D

 21 21  0  0  1  0  0  0  0  0999 V2000
    1.7371   -1.6428    1.8027 O   0  0  0  0  0  1  0  0  0  0  0  0
    2.2149   -0.0005   -0.9185 N   0  0  0  0  0  2  0  0  0  0  0  0
    3.3063    0.0163    1.9330 N   0  0  0  0  0  0  0  0  0  0  0  0
    4.2617    0.2501    2.2066 H   0  0  0  0  0  0  0  0  0  0  0  0
    2.3961   -0.0565   -2.2539 C   0  0  0  0  0  3  0  0  0  0  0  0
    1.9788   -0.9412   -2.7617 H   0  0  0  0  0  0  0  0  0  0  0  0
    3.0638    0.9418   -2.9734 C   0  0  0  0  0  0  0  0  0  0  0  0
    3.1848    0.8470   -4.0619 H   0  0  0  0  0  0  0  0  0  0  0  0
    3.5591    2.0523   -2.2770 C   0  0  0  0  0  0  0  0  0  0  0  0
    4.0803    2.8631   -2.8074 H   0  0  0  0  0  0  0  0  0  0  0  0
    3.3807    2.1098   -0.8876 C   0  0  0  0  0  0  0  0  0  0  0  0
    3.7549    2.9645   -0.3057 H   0  0  0  0  0  0  0  0  0  0  0  0
    2.7093    1.0647   -0.2371 C   0  0  0  0  0  0  0  0  0  0  0  0
    2.5113    1.0401    1.2641 C   0  0  0  0  0  0  0  0  0  0  0  0
    2.7534    2.0265    1.7024 H   0  0  0  0  0  0  0  0  0  0  0  0
    1.4440    0.8257    1.4776 H   0  0  0  0  0  0  0  0  0  0  0  0
    2.8582   -1.2441    2.1770 C   0  0  1  0  0  3  0  0  0  0  0  0
    3.7814   -2.1553    2.9496 C   0  0  0  0  0  0  0  0  0  0  0  0
    3.2472   -2.5174    3.8499 H   0  0  0  0  0  0  0  0  0  0  0  0
    4.7295   -1.6773    3.2589 H   0  0  0  0  0  0  0  0  0  0  0  0
    4.0048   -3.0458    2.3297 H   0  0  0  0  0  0  0  0  0  0  0  0
  2 13  1  0  0  0  0
  3 17  1  0  0  0  0
  3  4  1  0  0  0  0
  5  2  1  0  0  0  0
  6  5  1  0  0  0  0
  7  9  2  0  0  0  0
  7  5  1  0  0  0  0
  8  7  1  0  0  0  0
  9 11  1  0  0  0  0
 10  9  1  0  0  0  0
 11 12  1  0  0  0  0
 11 13  2  0  0  0  0
 13 14  1  0  0  0  0
 14 16  1  0  0  0  0
 14 15  1  0  0  0  0
 14  3  1  0  0  0  0
 17  1  1  1  0  0  0
 17 18  1  0  0  0  0
 18 20  1  0  0  0  0
 18 19  1  0  0  0  0
 21 18  1  0  0  0  0
M  END
