1,2
 OpenBabel05122313063D

 10  9  0  0  1  0  0  0  0  0999 V2000
    1.5602   -0.3937    1.0264 N   0  0  0  0  0  2  0  0  0  0  0  0
    1.1996   -0.4851   -1.5754 O   0  5  0  0  0  0  0  0  0  0  0  0
    3.3109   -1.1805   -1.9363 O   0  0  0  0  0  0  0  0  0  0  0  0
    1.5930   -0.2681    2.2867 O   0  0  0  0  0  1  0  0  0  0  0  0
    2.4184   -0.8435   -1.1600 C   0  0  0  0  0  0  0  0  0  0  0  0
    2.6128   -0.7740    0.3108 C   0  0  1  0  0  3  0  0  0  0  0  0
    3.9105   -1.0902    0.9692 C   0  0  0  0  0  0  0  0  0  0  0  0
    4.6385   -1.3871    0.1919 H   0  0  0  0  0  0  0  0  0  0  0  0
    3.7940   -1.9085    1.7113 H   0  0  0  0  0  0  0  0  0  0  0  0
    4.2979   -0.2161    1.5364 H   0  0  0  0  0  0  0  0  0  0  0  0
  1  4  1  0  0  0  0
  2  5  1  0  0  0  0
  3  5  2  0  0  0  0
  6  5  1  6  0  0  0
  6  7  1  0  0  0  0
  6  1  1  0  0  0  0
  7 10  1  0  0  0  0
  7  9  1  0  0  0  0
  8  7  1  0  0  0  0
M  CHG  1   2  -1
M  END
