3,4
 OpenBabel05122313063D

 22 23  0  0  1  0  0  0  0  0999 V2000
    3.7541   -3.0107   -0.6078 Br  0  0  0  0  0  0  0  0  0  0  0  0
    7.2928    1.3541    0.3203 Br  0  0  0  0  0  0  0  0  0  0  0  0
    1.6596   -0.8079   -0.3015 O   0  0  0  0  0  1  0  0  0  0  0  0
    0.7518    1.7620   -0.1279 N   0  0  0  0  0  2  0  0  0  0  0  0
    3.1116    1.0930    0.0128 C   0  0  0  0  0  0  0  0  0  0  0  0
    2.8491   -0.3086   -0.1796 C   0  0  2  0  0  3  0  0  0  0  0  0
    4.0064   -1.1564   -0.2663 C   0  0  0  0  0  0  0  0  0  0  0  0
    5.3026   -0.6708   -0.1168 C   0  0  0  0  0  0  0  0  0  0  0  0
    6.1553   -1.3605   -0.1778 H   0  0  0  0  0  0  0  0  0  0  0  0
    5.5147    0.7086    0.1087 C   0  0  0  0  0  0  0  0  0  0  0  0
    4.4363    1.5829    0.1595 C   0  0  0  0  0  0  0  0  0  0  0  0
    4.5993    2.6607    0.3050 H   0  0  0  0  0  0  0  0  0  0  0  0
    2.0309    2.0340   -0.0378 C   0  0  0  0  0  0  0  0  0  0  0  0
    2.3203    3.1016   -0.0340 H   0  0  0  0  0  0  0  0  0  0  0  0
   -0.1570    2.8743   -0.3220 C   0  0  0  0  0  0  0  0  0  0  0  0
   -0.8666    2.9870    0.5110 H   0  0  0  0  0  0  0  0  0  0  0  0
   -0.7376    3.1105   -1.6900 C   0  0  0  0  0  0  0  0  0  0  0  0
   -0.3548    2.4751   -2.5040 H   0  0  0  0  0  0  0  0  0  0  0  0
   -1.8104    3.3485   -1.7462 H   0  0  0  0  0  0  0  0  0  0  0  0
    0.2293    4.1126   -1.0949 C   0  0  0  0  0  0  0  0  0  0  0  0
    1.2303    4.1788   -1.5492 H   0  0  0  0  0  0  0  0  0  0  0  0
   -0.1583    5.0752   -0.7267 H   0  0  0  0  0  0  0  0  0  0  0  0
  1  7  1  0  0  0  0
  4 13  1  0  0  0  0
  5 11  1  0  0  0  0
  6  3  1  6  0  0  0
  6  5  1  0  0  0  0
  7  6  1  0  0  0  0
  7  8  2  0  0  0  0
  8 10  1  0  0  0  0
  9  8  1  0  0  0  0
 10 11  2  0  0  0  0
 10  2  1  0  0  0  0
 11 12  1  0  0  0  0
 13 14  1  0  0  0  0
 13  5  2  0  0  0  0
 15  4  1  0  0  0  0
 15 16  1  0  0  0  0
 17 20  1  0  0  0  0
 17 15  1  0  0  0  0
 18 17  1  0  0  0  0
 19 17  1  0  0  0  0
 20 22  1  0  0  0  0
 20 15  1  0  0  0  0
 21 20  1  0  0  0  0
M  END
