1,4
 OpenBabel05122313063D

 30 32  0  0  1  0  0  0  0  0999 V2000
    1.5007   -1.3164    0.1504 O   0  0  0  0  0  1  0  0  0  0  0  0
   -6.7494    0.1171    0.8052 O   0  0  0  0  0  0  0  0  0  0  0  0
   -8.8981    0.1757    0.1449 O   0  0  0  0  0  0  0  0  0  0  0  0
   -1.4029   -1.4463    0.2945 N   0  0  0  0  0  2  0  0  0  0  0  0
    1.4063   -2.6149    0.1546 C   0  0  1  0  0  3  0  0  0  0  0  0
    2.6254   -3.3638    0.1198 C   0  0  0  0  0  0  0  0  0  0  0  0
    3.5626   -2.7895    0.0893 H   0  0  0  0  0  0  0  0  0  0  0  0
    2.6194   -4.7519    0.1157 C   0  0  0  0  0  0  0  0  0  0  0  0
    3.5778   -5.2934    0.0800 H   0  0  0  0  0  0  0  0  0  0  0  0
    1.4029   -5.4806    0.1576 C   0  0  0  0  0  0  0  0  0  0  0  0
    1.4109   -6.5797    0.1564 H   0  0  0  0  0  0  0  0  0  0  0  0
    0.2062   -4.7827    0.2060 C   0  0  0  0  0  0  0  0  0  0  0  0
   -0.7504   -5.3279    0.2492 H   0  0  0  0  0  0  0  0  0  0  0  0
    0.1659   -3.3549    0.2021 C   0  0  0  0  0  0  0  0  0  0  0  0
   -1.1174   -2.7314    0.2952 C   0  0  0  0  0  0  0  0  0  0  0  0
   -1.9761   -3.4219    0.4101 H   0  0  0  0  0  0  0  0  0  0  0  0
   -2.7726   -1.0681    0.4033 C   0  0  0  0  0  0  0  0  0  0  0  0
   -3.7086   -1.4887   -0.5465 C   0  0  0  0  0  0  0  0  0  0  0  0
   -3.3855   -2.1005   -1.4022 H   0  0  0  0  0  0  0  0  0  0  0  0
   -5.0663   -1.1078   -0.4382 C   0  0  0  0  0  0  0  0  0  0  0  0
   -6.0875   -1.4936   -1.3796 C   0  0  0  0  0  0  0  0  0  0  0  0
   -5.8078   -2.1268   -2.2369 H   0  0  0  0  0  0  0  0  0  0  0  0
   -7.3781   -1.0809   -1.2135 C   0  0  0  0  0  0  0  0  0  0  0  0
   -8.1797   -1.3561   -1.9123 H   0  0  0  0  0  0  0  0  0  0  0  0
   -7.7858   -0.2389   -0.0902 C   0  0  0  0  0  0  0  0  0  0  0  0
   -5.4621   -0.2856    0.6499 C   0  0  0  0  0  0  0  0  0  0  0  0
   -4.5200    0.1430    1.6036 C   0  0  0  0  0  0  0  0  0  0  0  0
   -4.8583    0.7784    2.4337 H   0  0  0  0  0  0  0  0  0  0  0  0
   -3.1862   -0.2390    1.4736 C   0  0  0  0  0  0  0  0  0  0  0  0
   -2.4360    0.0967    2.2026 H   0  0  0  0  0  0  0  0  0  0  0  0
  4 15  1  0  0  0  0
  4 17  1  0  0  0  0
  5  1  1  1  0  0  0
  5 14  1  0  0  0  0
  6  5  1  0  0  0  0
  7  6  1  0  0  0  0
  8  6  2  0  0  0  0
  8 10  1  0  0  0  0
  9  8  1  0  0  0  0
 10 12  2  0  0  0  0
 11 10  1  0  0  0  0
 12 13  1  0  0  0  0
 14 12  1  0  0  0  0
 14 15  2  0  0  0  0
 15 16  1  0  0  0  0
 17 29  1  0  0  0  0
 18 20  1  0  0  0  0
 18 17  2  0  0  0  0
 19 18  1  0  0  0  0
 20 26  2  0  0  0  0
 21 23  2  0  0  0  0
 21 20  1  0  0  0  0
 22 21  1  0  0  0  0
 23 25  1  0  0  0  0
 24 23  1  0  0  0  0
 25  3  2  0  0  0  0
 25  2  1  0  0  0  0
 26  2  1  0  0  0  0
 26 27  1  0  0  0  0
 27 28  1  0  0  0  0
 29 27  2  0  0  0  0
 29 30  1  0  0  0  0
M  END
