1,2
 OpenBabel05122313063D

 46 47  0  0  0  0  0  0  0  0999 V2000
   -0.0846    2.1571    0.9171 O   0  5  0  0  0  0  0  0  0  0  0  0
    1.1187    0.2367   -0.4420 N   0  0  0  0  0  2  0  0  0  0  0  0
   -0.2823    2.8156   -0.2137 C   0  0  0  0  0  0  0  0  0  0  0  0
    0.2777    2.3211   -1.4261 C   0  0  0  0  0  0  0  0  0  0  0  0
    0.1075    3.0582   -2.6245 C   0  0  0  0  0  0  0  0  0  0  0  0
   -0.6378    4.2351   -2.6194 C   0  0  0  0  0  0  0  0  0  0  0  0
   -1.1983    4.7044   -1.4107 C   0  0  0  0  0  0  0  0  0  0  0  0
   -1.0285    4.0266   -0.1950 C   0  0  0  0  0  0  0  0  0  0  0  0
    1.0531    1.1047   -1.4160 C   0  0  0  0  0  3  0  0  0  0  0  0
   -1.5972    4.5028    1.1114 C   0  0  0  0  0  0  0  0  0  0  0  0
    2.0362   -0.8514   -0.6485 C   0  0  0  0  0  0  0  0  0  0  0  0
    1.5861   -2.0276   -1.2933 C   0  0  0  0  0  0  0  0  0  0  0  0
    2.5236   -3.0546   -1.5100 C   0  0  0  0  0  0  0  0  0  0  0  0
    3.8515   -2.9228   -1.0861 C   0  0  0  0  0  0  0  0  0  0  0  0
    4.2629   -1.7602   -0.4207 C   0  0  0  0  0  0  0  0  0  0  0  0
    3.3654   -0.7053   -0.1800 C   0  0  0  0  0  0  0  0  0  0  0  0
    0.1382   -2.1727   -1.7398 C   0  0  0  0  0  0  0  0  0  0  0  0
   -0.4847   -3.5010   -1.2874 C   0  0  0  0  0  0  0  0  0  0  0  0
   -0.0118   -1.9645   -3.2563 C   0  0  0  0  0  0  0  0  0  0  0  0
    3.8013    0.5591    0.5502 C   0  0  0  0  0  0  0  0  0  0  0  0
    4.6302    0.2591    1.8066 C   0  0  0  0  0  0  0  0  0  0  0  0
    4.5383    1.5164   -0.4032 C   0  0  0  0  0  0  0  0  0  0  0  0
    0.5568    2.6780   -3.5554 H   0  0  0  0  0  0  0  0  0  0  0  0
   -0.7897    4.8008   -3.5498 H   0  0  0  0  0  0  0  0  0  0  0  0
   -1.7901    5.6338   -1.4151 H   0  0  0  0  0  0  0  0  0  0  0  0
    1.6508    0.9017   -2.3289 H   0  0  0  0  0  0  0  0  0  0  0  0
   -0.7877    4.8320    1.7968 H   0  0  0  0  0  0  0  0  0  0  0  0
   -2.2967    5.3475    0.9674 H   0  0  0  0  0  0  0  0  0  0  0  0
   -2.1186    3.6785    1.6397 H   0  0  0  0  0  0  0  0  0  0  0  0
    2.2019   -3.9771   -2.0169 H   0  0  0  0  0  0  0  0  0  0  0  0
    4.5700   -3.7370   -1.2653 H   0  0  0  0  0  0  0  0  0  0  0  0
    5.3031   -1.6716   -0.0730 H   0  0  0  0  0  0  0  0  0  0  0  0
   -0.4299   -1.3668   -1.2390 H   0  0  0  0  0  0  0  0  0  0  0  0
   -1.5730   -3.5078   -1.4997 H   0  0  0  0  0  0  0  0  0  0  0  0
   -0.0343   -4.3708   -1.8090 H   0  0  0  0  0  0  0  0  0  0  0  0
   -0.3479   -3.6480   -0.1981 H   0  0  0  0  0  0  0  0  0  0  0  0
   -1.0782   -2.0302   -3.5561 H   0  0  0  0  0  0  0  0  0  0  0  0
    0.3718   -0.9728   -3.5730 H   0  0  0  0  0  0  0  0  0  0  0  0
    0.5519   -2.7334   -3.8247 H   0  0  0  0  0  0  0  0  0  0  0  0
    2.8768    1.0722    0.8880 H   0  0  0  0  0  0  0  0  0  0  0  0
    4.8412    1.1965    2.3602 H   0  0  0  0  0  0  0  0  0  0  0  0
    4.0803   -0.4254    2.4815 H   0  0  0  0  0  0  0  0  0  0  0  0
    5.6084   -0.2032    1.5603 H   0  0  0  0  0  0  0  0  0  0  0  0
    5.4613    1.0454   -0.8010 H   0  0  0  0  0  0  0  0  0  0  0  0
    3.9078    1.7953   -1.2720 H   0  0  0  0  0  0  0  0  0  0  0  0
    4.8287    2.4505    0.1203 H   0  0  0  0  0  0  0  0  0  0  0  0
  3  8  1  0  0  0  0
  3  1  1  0  0  0  0
  4  9  1  0  0  0  0
  4  3  2  0  0  0  0
  5  6  2  0  0  0  0
  5  4  1  0  0  0  0
  6  7  1  0  0  0  0
  7  8  2  0  0  0  0
  8 10  1  0  0  0  0
  9  2  1  0  0  0  0
 10 29  1  0  0  0  0
 10 27  1  0  0  0  0
 11  2  1  0  0  0  0
 11 16  1  0  0  0  0
 12 11  2  0  0  0  0
 13 12  1  0  0  0  0
 13 14  2  0  0  0  0
 14 15  1  0  0  0  0
 15 16  2  0  0  0  0
 15 32  1  0  0  0  0
 16 20  1  0  0  0  0
 17 12  1  0  0  0  0
 17 18  1  0  0  0  0
 17 33  1  0  0  0  0
 18 36  1  0  0  0  0
 19 17  1  0  0  0  0
 20 40  1  0  0  0  0
 20 21  1  0  0  0  0
 21 41  1  0  0  0  0
 21 42  1  0  0  0  0
 22 46  1  0  0  0  0
 22 20  1  0  0  0  0
 23  5  1  0  0  0  0
 24  6  1  0  0  0  0
 25  7  1  0  0  0  0
 26  9  1  0  0  0  0
 28 10  1  0  0  0  0
 30 13  1  0  0  0  0
 31 14  1  0  0  0  0
 34 18  1  0  0  0  0
 35 18  1  0  0  0  0
 37 19  1  0  0  0  0
 38 19  1  0  0  0  0
 39 19  1  0  0  0  0
 43 21  1  0  0  0  0
 44 22  1  0  0  0  0
 45 22  1  0  0  0  0
M  CHG  1   1  -1
M  END
