1,3
 OpenBabel05122313063D

 32 33  0  0  0  0  0  0  0  0999 V2000
   -0.0717    1.7516    0.4462 N   0  0  0  0  0  2  0  0  0  0  0  0
    4.0037    0.2617   -2.6282 O   0  0  0  0  0  0  0  0  0  0  0  0
    1.6915    0.3461   -1.4470 O   0  5  0  0  0  0  0  0  0  0  0  0
   -5.0690    3.0366    3.0308 C   0  0  0  0  0  0  0  0  0  0  0  0
   -5.2270    4.1276    3.1333 H   0  0  0  0  0  0  0  0  0  0  0  0
   -5.1291    2.5864    4.0435 H   0  0  0  0  0  0  0  0  0  0  0  0
   -5.9207    2.6258    2.4482 H   0  0  0  0  0  0  0  0  0  0  0  0
   -3.7518    2.7242    2.3678 C   0  0  0  0  0  0  0  0  0  0  0  0
   -2.9266    3.7412    1.8490 C   0  0  0  0  0  0  0  0  0  0  0  0
   -3.2528    4.7907    1.9259 H   0  0  0  0  0  0  0  0  0  0  0  0
   -1.7122    3.4497    1.2140 C   0  0  0  0  0  0  0  0  0  0  0  0
   -1.1177    4.2653    0.7768 H   0  0  0  0  0  0  0  0  0  0  0  0
   -1.2765    2.1130    1.0884 C   0  0  0  0  0  0  0  0  0  0  0  0
   -2.1056    1.0856    1.5927 C   0  0  0  0  0  0  0  0  0  0  0  0
   -1.7849    0.0380    1.4960 H   0  0  0  0  0  0  0  0  0  0  0  0
   -3.3138    1.3898    2.2227 C   0  0  0  0  0  0  0  0  0  0  0  0
   -3.9374    0.5674    2.6075 H   0  0  0  0  0  0  0  0  0  0  0  0
    0.9749    2.5540    0.4606 C   0  0  0  0  0  3  0  0  0  0  0  0
    0.9035    3.4717    1.0823 H   0  0  0  0  0  0  0  0  0  0  0  0
    2.2274    2.3820   -0.2129 C   0  0  0  0  0  0  0  0  0  0  0  0
    3.2287    3.3763    0.0472 C   0  0  0  0  0  0  0  0  0  0  0  0
    2.9858    4.1869    0.7523 H   0  0  0  0  0  0  0  0  0  0  0  0
    4.4646    3.3280   -0.5661 C   0  0  0  0  0  0  0  0  0  0  0  0
    5.2249    4.0945   -0.3579 H   0  0  0  0  0  0  0  0  0  0  0  0
    4.7593    2.2810   -1.4816 C   0  0  0  0  0  0  0  0  0  0  0  0
    5.7470    2.2547   -1.9624 H   0  0  0  0  0  0  0  0  0  0  0  0
    3.8157    1.2980   -1.7707 C   0  0  0  0  0  0  0  0  0  0  0  0
    2.5048    1.3018   -1.1401 C   0  0  0  0  0  0  0  0  0  0  0  0
    5.2476    0.1655   -3.2850 C   0  0  0  0  0  0  0  0  0  0  0  0
    5.1959   -0.7322   -3.9291 H   0  0  0  0  0  0  0  0  0  0  0  0
    6.0912    0.0468   -2.5661 H   0  0  0  0  0  0  0  0  0  0  0  0
    5.4539    1.0565   -3.9222 H   0  0  0  0  0  0  0  0  0  0  0  0
  1 18  1  0  0  0  0
  1 13  1  0  0  0  0
  2 27  1  0  0  0  0
  3 28  1  0  0  0  0
  4  5  1  0  0  0  0
  4  6  1  0  0  0  0
  7  4  1  0  0  0  0
  8  4  1  0  0  0  0
  9 10  1  0  0  0  0
  9  8  2  0  0  0  0
 11  9  1  0  0  0  0
 12 11  1  0  0  0  0
 13 11  2  0  0  0  0
 13 14  1  0  0  0  0
 14 16  2  0  0  0  0
 15 14  1  0  0  0  0
 16  8  1  0  0  0  0
 16 17  1  0  0  0  0
 18 19  1  0  0  0  0
 20 21  1  0  0  0  0
 20 18  1  0  0  0  0
 21 22  1  0  0  0  0
 23 24  1  0  0  0  0
 23 21  2  0  0  0  0
 25 23  1  0  0  0  0
 26 25  1  0  0  0  0
 27 25  2  0  0  0  0
 27 28  1  0  0  0  0
 28 20  2  0  0  0  0
 29  2  1  0  0  0  0
 29 31  1  0  0  0  0
 30 29  1  0  0  0  0
 32 29  1  0  0  0  0
M  CHG  1   3  -1
M  END
