1,2
 OpenBabel05122313063D

 21 21  0  0  1  0  0  0  0  0999 V2000
   -0.3618   -0.1991   -2.4274 O   0  0  0  0  0  1  0  0  0  0  0  0
    0.6689    1.2340   -1.1043 N   0  0  0  0  0  2  0  0  0  0  0  0
    0.3652    0.8606   -2.3498 C   0  0  2  0  0  3  0  0  0  0  0  0
    0.7529    1.5779   -3.6149 C   0  0  0  0  0  0  0  0  0  0  0  0
    1.6459    1.1002   -4.0695 H   0  0  0  0  0  0  0  0  0  0  0  0
    0.9808    2.6457   -3.4381 H   0  0  0  0  0  0  0  0  0  0  0  0
   -0.0783    1.4770   -4.3383 H   0  0  0  0  0  0  0  0  0  0  0  0
    1.6174    2.1507   -0.6516 C   0  0  0  0  0  0  0  0  0  0  0  0
    2.7980    2.4865   -1.3587 C   0  0  0  0  0  0  0  0  0  0  0  0
    3.0165    2.0068   -2.3220 H   0  0  0  0  0  0  0  0  0  0  0  0
    3.7219    3.3901   -0.8168 C   0  0  0  0  0  0  0  0  0  0  0  0
    4.6340    3.6269   -1.3884 H   0  0  0  0  0  0  0  0  0  0  0  0
    3.5287    3.9838    0.4458 C   0  0  0  0  0  0  0  0  0  0  0  0
    2.3684    3.6177    1.1615 C   0  0  0  0  0  0  0  0  0  0  0  0
    2.1959    4.0381    2.1655 H   0  0  0  0  0  0  0  0  0  0  0  0
    1.4357    2.7216    0.6338 C   0  0  0  0  0  0  0  0  0  0  0  0
    0.5548    2.4250    1.2217 H   0  0  0  0  0  0  0  0  0  0  0  0
    4.5168    4.9704    1.0151 C   0  0  0  0  0  0  0  0  0  0  0  0
    4.7187    4.7740    2.0880 H   0  0  0  0  0  0  0  0  0  0  0  0
    4.1343    6.0120    0.9471 H   0  0  0  0  0  0  0  0  0  0  0  0
    5.4831    4.9392    0.4743 H   0  0  0  0  0  0  0  0  0  0  0  0
  2  8  1  0  0  0  0
  3  1  1  1  0  0  0
  3  2  1  0  0  0  0
  4  6  1  0  0  0  0
  4  3  1  0  0  0  0
  5  4  1  0  0  0  0
  7  4  1  0  0  0  0
  8 16  1  0  0  0  0
  9 11  1  0  0  0  0
  9  8  2  0  0  0  0
 10  9  1  0  0  0  0
 11 13  2  0  0  0  0
 12 11  1  0  0  0  0
 13 18  1  0  0  0  0
 13 14  1  0  0  0  0
 14 15  1  0  0  0  0
 16 14  2  0  0  0  0
 16 17  1  0  0  0  0
 18 19  1  0  0  0  0
 20 18  1  0  0  0  0
 21 18  1  0  0  0  0
M  END
