2,7
 OpenBabel05122313063D

 63 63  0  0  0  0  0  0  0  0999 V2000
    2.9390    5.0448   -0.8901 Cl  0  0  0  0  0  0  0  0  0  0  0  0
    0.5178   -0.3206   -1.0659 O   0  5  0  0  0  0  0  0  0  0  0  0
    5.0527   -2.5767   -0.4450 O   0  0  0  0  0  0  0  0  0  0  0  0
    1.1581   -0.0758    2.6889 O   0  0  0  0  0  0  0  0  0  0  0  0
   -4.2704    0.3294    1.7461 O   0  0  0  0  0  0  0  0  0  0  0  0
   -0.9958    3.6467    1.4677 O   0  0  0  0  0  0  0  0  0  0  0  0
   -1.9631    1.0621   -0.2003 N   0  0  0  0  0  0  0  0  0  0  0  0
    2.5951   -1.1480    0.0422 N   0  3  0  0  0  0  0  0  0  0  0  0
    1.5213   -0.9144   -0.1758 H   0  0  0  0  0  0  0  0  0  0  0  0
    1.0058    0.9166   -1.0875 C   0  0  0  0  0  0  0  0  0  0  0  0
    0.1911    2.0809   -1.0970 C   0  0  0  0  0  0  0  0  0  0  0  0
    0.8155    3.3377   -1.0646 C   0  0  0  0  0  0  0  0  0  0  0  0
    0.1960    4.2453   -1.0458 H   0  0  0  0  0  0  0  0  0  0  0  0
    2.2124    3.4543   -1.0000 C   0  0  0  0  0  0  0  0  0  0  0  0
    3.0278    2.3130   -0.9767 C   0  0  0  0  0  0  0  0  0  0  0  0
    4.1214    2.4179   -0.9171 H   0  0  0  0  0  0  0  0  0  0  0  0
    2.4281    1.0473   -1.0291 C   0  0  0  0  0  0  0  0  0  0  0  0
    3.2008   -0.2445   -1.0218 C   0  0  0  0  0  0  0  0  0  0  0  0
    3.0764   -0.7846   -1.9816 H   0  0  0  0  0  0  0  0  0  0  0  0
    4.2824   -0.1255   -0.8301 H   0  0  0  0  0  0  0  0  0  0  0  0
    2.6724   -2.6161   -0.2407 C   0  0  0  0  0  0  0  0  0  0  0  0
    1.8214   -3.0967    0.2866 H   0  0  0  0  0  0  0  0  0  0  0  0
    2.4756   -2.7264   -1.3242 H   0  0  0  0  0  0  0  0  0  0  0  0
    3.9801   -3.2796    0.1416 C   0  0  0  0  0  0  0  0  0  0  0  0
    4.0980   -3.3270    1.2541 H   0  0  0  0  0  0  0  0  0  0  0  0
    3.9398   -4.3406   -0.2088 H   0  0  0  0  0  0  0  0  0  0  0  0
    6.3106   -3.1652   -0.1883 C   0  0  0  0  0  0  0  0  0  0  0  0
    7.0795   -2.5399   -0.6802 H   0  0  0  0  0  0  0  0  0  0  0  0
    6.3744   -4.2010   -0.5984 H   0  0  0  0  0  0  0  0  0  0  0  0
    6.5326   -3.2135    0.9052 H   0  0  0  0  0  0  0  0  0  0  0  0
    3.0437   -0.7336    1.4016 C   0  0  0  0  0  0  0  0  0  0  0  0
    3.1209    0.3715    1.3893 H   0  0  0  0  0  0  0  0  0  0  0  0
    4.0611   -1.1409    1.5571 H   0  0  0  0  0  0  0  0  0  0  0  0
    2.1022   -1.1102    2.5339 C   0  0  0  0  0  0  0  0  0  0  0  0
    1.5944   -2.0868    2.3417 H   0  0  0  0  0  0  0  0  0  0  0  0
    2.7060   -1.2317    3.4687 H   0  0  0  0  0  0  0  0  0  0  0  0
    0.2273   -0.3422    3.7227 C   0  0  0  0  0  0  0  0  0  0  0  0
   -0.4008    0.5606    3.8417 H   0  0  0  0  0  0  0  0  0  0  0  0
    0.7456   -0.5419    4.6913 H   0  0  0  0  0  0  0  0  0  0  0  0
   -0.4247   -1.2078    3.4664 H   0  0  0  0  0  0  0  0  0  0  0  0
   -1.3141    1.9878   -1.1797 C   0  0  0  0  0  0  0  0  0  0  0  0
   -1.7381    3.0091   -1.0653 H   0  0  0  0  0  0  0  0  0  0  0  0
   -1.6094    1.6082   -2.1844 H   0  0  0  0  0  0  0  0  0  0  0  0
   -1.4991    1.2277    1.2032 C   0  0  0  0  0  0  0  0  0  0  0  0
   -1.9757    0.4204    1.7869 H   0  0  0  0  0  0  0  0  0  0  0  0
   -0.4110    1.0247    1.2224 H   0  0  0  0  0  0  0  0  0  0  0  0
   -1.8094    2.5623    1.8831 C   0  0  0  0  0  0  0  0  0  0  0  0
   -2.8625    2.8571    1.7006 H   0  0  0  0  0  0  0  0  0  0  0  0
   -1.7200    2.4110    2.9878 H   0  0  0  0  0  0  0  0  0  0  0  0
    0.2737    3.6520    2.0862 C   0  0  0  0  0  0  0  0  0  0  0  0
    0.8604    4.4829    1.6496 H   0  0  0  0  0  0  0  0  0  0  0  0
    0.8402    2.7058    1.9217 H   0  0  0  0  0  0  0  0  0  0  0  0
    0.1855    3.8119    3.1893 H   0  0  0  0  0  0  0  0  0  0  0  0
   -3.4347    1.1513   -0.3744 C   0  0  0  0  0  0  0  0  0  0  0  0
   -3.6259    1.0119   -1.4574 H   0  0  0  0  0  0  0  0  0  0  0  0
   -3.8080    2.1620   -0.0898 H   0  0  0  0  0  0  0  0  0  0  0  0
   -4.2289    0.0811    0.3533 C   0  0  0  0  0  0  0  0  0  0  0  0
   -5.2631    0.0654   -0.0729 H   0  0  0  0  0  0  0  0  0  0  0  0
   -3.7896   -0.9251    0.1362 H   0  0  0  0  0  0  0  0  0  0  0  0
   -4.8171   -0.7531    2.4681 C   0  0  0  0  0  0  0  0  0  0  0  0
   -4.8240   -0.4721    3.5393 H   0  0  0  0  0  0  0  0  0  0  0  0
   -4.2094   -1.6804    2.3392 H   0  0  0  0  0  0  0  0  0  0  0  0
   -5.8655   -0.9768    2.1533 H   0  0  0  0  0  0  0  0  0  0  0  0
  3 27  1  0  0  0  0
  3 24  1  0  0  0  0
  4 37  1  0  0  0  0
  5 60  1  0  0  0  0
  6 47  1  0  0  0  0
  6 50  1  0  0  0  0
  7 44  1  0  0  0  0
  8 31  1  0  0  0  0
  9  8  1  0  0  0  0
 10  2  1  0  0  0  0
 10 17  1  0  0  0  0
 11 10  2  0  0  0  0
 11 12  1  0  0  0  0
 12 13  1  0  0  0  0
 12 14  2  0  0  0  0
 14 15  1  0  0  0  0
 14  1  1  0  0  0  0
 15 16  1  0  0  0  0
 17 18  1  0  0  0  0
 17 15  2  0  0  0  0
 18 20  1  0  0  0  0
 18  8  1  0  0  0  0
 19 18  1  0  0  0  0
 21  8  1  0  0  0  0
 21 24  1  0  0  0  0
 21 22  1  0  0  0  0
 23 21  1  0  0  0  0
 24 25  1  0  0  0  0
 26 24  1  0  0  0  0
 27 30  1  0  0  0  0
 28 27  1  0  0  0  0
 29 27  1  0  0  0  0
 31 33  1  0  0  0  0
 31 34  1  0  0  0  0
 32 31  1  0  0  0  0
 34  4  1  0  0  0  0
 34 36  1  0  0  0  0
 35 34  1  0  0  0  0
 37 38  1  0  0  0  0
 37 39  1  0  0  0  0
 40 37  1  0  0  0  0
 41 11  1  0  0  0  0
 41 42  1  0  0  0  0
 41  7  1  0  0  0  0
 43 41  1  0  0  0  0
 44 46  1  0  0  0  0
 44 45  1  0  0  0  0
 44 47  1  0  0  0  0
 47 49  1  0  0  0  0
 48 47  1  0  0  0  0
 50 53  1  0  0  0  0
 51 50  1  0  0  0  0
 52 50  1  0  0  0  0
 54  7  1  0  0  0  0
 54 56  1  0  0  0  0
 54 57  1  0  0  0  0
 55 54  1  0  0  0  0
 57  5  1  0  0  0  0
 58 57  1  0  0  0  0
 59 57  1  0  0  0  0
 60 61  1  0  0  0  0
 62 60  1  0  0  0  0
 63 60  1  0  0  0  0
M  CHG  2   2  -1   8   1
M  END
