1,23
 OpenBabel05122313063D

 53 52  0  0  1  0  0  0  0  0999 V2000
    1.0875    2.0543   -0.5169 O   0  5  0  0  0  0  0  0  0  0  0  0
    0.0105    2.2907    0.1130 C   0  0  0  0  0  0  0  0  0  0  0  0
   -0.6553    3.4669   -0.1795 N   0  0  0  0  0  0  0  0  0  0  0  0
   -0.1119    4.3891   -1.1567 C   0  0  0  0  0  0  0  0  0  0  0  0
    0.7928    3.9428   -1.6041 H   0  0  0  0  0  0  0  0  0  0  0  0
    0.1565    5.3591   -0.6816 H   0  0  0  0  0  0  0  0  0  0  0  0
   -0.8568    4.5976   -1.9567 H   0  0  0  0  0  0  0  0  0  0  0  0
   -1.8621    3.8786    0.5033 C   0  0  0  0  0  0  0  0  0  0  0  0
   -1.7312    4.8881    0.9521 H   0  0  0  0  0  0  0  0  0  0  0  0
   -2.0844    3.1511    1.3024 H   0  0  0  0  0  0  0  0  0  0  0  0
   -2.7269    3.9318   -0.1975 H   0  0  0  0  0  0  0  0  0  0  0  0
   -0.5478    1.5334    1.0922 N   0  0  0  0  0  0  0  0  0  0  0  0
   -0.2907    0.2463    1.2763 C   0  0  2  0  0  3  0  0  0  0  0  0
   -0.7526   -0.3174    2.4438 N   0  0  0  0  0  0  0  0  0  0  0  0
   -1.5079    0.5084    3.3745 C   0  0  0  0  0  0  0  0  0  0  0  0
   -2.2490    1.1125    2.8200 H   0  0  0  0  0  0  0  0  0  0  0  0
   -0.8544    1.2133    3.9345 H   0  0  0  0  0  0  0  0  0  0  0  0
   -2.0360   -0.1469    4.0934 H   0  0  0  0  0  0  0  0  0  0  0  0
   -0.1283   -1.5409    2.9433 C   0  0  0  0  0  0  0  0  0  0  0  0
    0.9743   -1.4749    2.8393 H   0  0  0  0  0  0  0  0  0  0  0  0
   -0.4915   -2.4458    2.4108 H   0  0  0  0  0  0  0  0  0  0  0  0
   -0.3755   -1.6519    4.0145 H   0  0  0  0  0  0  0  0  0  0  0  0
    0.4421   -0.5568    0.4342 N   0  0  0  0  0  2  0  0  0  0  0  0
   -0.0087   -1.7466   -0.0141 C   0  0  1  0  0  3  0  0  0  0  0  0
    0.8760   -2.7479   -0.2501 N   0  0  0  0  0  0  0  0  0  0  0  0
    2.2620   -2.7155    0.1963 C   0  0  0  0  0  0  0  0  0  0  0  0
    2.4225   -1.9207    0.9496 H   0  0  0  0  0  0  0  0  0  0  0  0
    2.9409   -2.5078   -0.6575 H   0  0  0  0  0  0  0  0  0  0  0  0
    2.5145   -3.6991    0.6457 H   0  0  0  0  0  0  0  0  0  0  0  0
    0.5163   -3.8735   -1.0940 C   0  0  0  0  0  0  0  0  0  0  0  0
    1.0341   -3.7969   -2.0757 H   0  0  0  0  0  0  0  0  0  0  0  0
   -0.5772   -3.8825   -1.2453 H   0  0  0  0  0  0  0  0  0  0  0  0
    0.8262   -4.8237   -0.6118 H   0  0  0  0  0  0  0  0  0  0  0  0
   -1.3319   -2.0218   -0.1969 N   0  0  0  0  0  2  0  0  0  0  0  0
   -2.1867   -1.1332   -0.6835 C   0  0  0  0  0  3  0  0  0  0  0  0
   -3.4732   -1.1273   -0.1923 N   0  0  0  0  0  0  0  0  0  0  0  0
   -4.6312   -0.9772   -1.0600 C   0  0  0  0  0  0  0  0  0  0  0  0
   -4.3092   -0.8712   -2.1108 H   0  0  0  0  0  0  0  0  0  0  0  0
   -5.2536   -0.0969   -0.7882 H   0  0  0  0  0  0  0  0  0  0  0  0
   -5.2724   -1.8836   -0.9908 H   0  0  0  0  0  0  0  0  0  0  0  0
   -3.7262   -1.7322    1.1044 C   0  0  0  0  0  0  0  0  0  0  0  0
   -2.8331   -1.6117    1.7423 H   0  0  0  0  0  0  0  0  0  0  0  0
   -3.9585   -2.8180    1.0218 H   0  0  0  0  0  0  0  0  0  0  0  0
   -4.5875   -1.2223    1.5833 H   0  0  0  0  0  0  0  0  0  0  0  0
   -1.9014   -0.2560   -1.6998 N   0  0  0  0  0  0  0  0  0  0  0  0
   -0.7639   -0.4737   -2.5870 C   0  0  0  0  0  0  0  0  0  0  0  0
   -0.5312   -1.5516   -2.6464 H   0  0  0  0  0  0  0  0  0  0  0  0
    0.1565    0.0524   -2.2570 H   0  0  0  0  0  0  0  0  0  0  0  0
   -1.0312   -0.1214   -3.6041 H   0  0  0  0  0  0  0  0  0  0  0  0
   -2.5392    1.0490   -1.7996 C   0  0  0  0  0  0  0  0  0  0  0  0
   -3.0989    1.2674   -0.8728 H   0  0  0  0  0  0  0  0  0  0  0  0
   -3.2292    1.1228   -2.6692 H   0  0  0  0  0  0  0  0  0  0  0  0
   -1.7564    1.8265   -1.9123 H   0  0  0  0  0  0  0  0  0  0  0  0
  1  2  1  0  0  0  0
  2 12  2  0  0  0  0
  3  2  1  0  0  0  0
  3  8  1  0  0  0  0
  4  6  1  0  0  0  0
  4  3  1  0  0  0  0
  5  4  1  0  0  0  0
  7  4  1  0  0  0  0
  8  9  1  0  0  0  0
  8 10  1  0  0  0  0
 11  8  1  0  0  0  0
 12 13  1  0  0  0  0
 13 23  1  1  0  0  0
 13 14  1  0  0  0  0
 14 19  1  0  0  0  0
 14 15  1  0  0  0  0
 15 17  1  0  0  0  0
 15 18  1  0  0  0  0
 16 15  1  0  0  0  0
 19 22  1  0  0  0  0
 20 19  1  0  0  0  0
 21 19  1  0  0  0  0
 24 34  1  1  0  0  0
 24 23  1  0  0  0  0
 25 24  1  0  0  0  0
 25 26  1  0  0  0  0
 26 29  1  0  0  0  0
 26 27  1  0  0  0  0
 28 26  1  0  0  0  0
 30 33  1  0  0  0  0
 30 25  1  0  0  0  0
 31 30  1  0  0  0  0
 32 30  1  0  0  0  0
 35 34  1  0  0  0  0
 35 36  1  0  0  0  0
 36 41  1  0  0  0  0
 37 40  1  0  0  0  0
 37 39  1  0  0  0  0
 37 36  1  0  0  0  0
 38 37  1  0  0  0  0
 41 44  1  0  0  0  0
 41 42  1  0  0  0  0
 43 41  1  0  0  0  0
 45 35  1  0  0  0  0
 46 48  1  0  0  0  0
 46 45  1  0  0  0  0
 47 46  1  0  0  0  0
 49 46  1  0  0  0  0
 50 45  1  0  0  0  0
 50 51  1  0  0  0  0
 52 50  1  0  0  0  0
 53 50  1  0  0  0  0
M  CHG  1   1  -1
M  END
