1,3
 OpenBabel05122313063D

 28 29  0  0  1  0  0  0  0  0999 V2000
    0.2301    0.0229    1.6336 O   0  0  0  0  0  1  0  0  0  0  0  0
    0.7002    1.1973    1.4566 N   0  0  0  0  0  0  0  0  0  0  0  0
   -1.9139    1.0031    0.0960 N   0  0  0  0  0  2  0  0  0  0  0  0
    0.0997    2.1882    0.8121 C   0  0  0  0  0  3  0  0  0  0  0  0
    0.6675    3.1249    0.7633 H   0  0  0  0  0  0  0  0  0  0  0  0
   -1.2550    2.1755    0.2831 C   0  0  2  0  0  3  0  0  0  0  0  0
   -1.8808    3.4089   -0.0131 C   0  0  0  0  0  0  0  0  0  0  0  0
   -1.3299    4.3499    0.1306 H   0  0  0  0  0  0  0  0  0  0  0  0
   -3.2014    3.4129   -0.4732 C   0  0  0  0  0  0  0  0  0  0  0  0
   -3.7022    4.3640   -0.7084 H   0  0  0  0  0  0  0  0  0  0  0  0
   -3.8766    2.1922   -0.6238 C   0  0  0  0  0  0  0  0  0  0  0  0
   -4.9176    2.1507   -0.9739 H   0  0  0  0  0  0  0  0  0  0  0  0
   -3.1851    1.0079   -0.3319 C   0  0  0  0  0  0  0  0  0  0  0  0
   -3.6447    0.0094   -0.4414 H   0  0  0  0  0  0  0  0  0  0  0  0
    2.0991    1.3789    1.9697 C   0  0  0  0  0  0  0  0  0  0  0  0
    2.0748    0.9570    2.9926 H   0  0  0  0  0  0  0  0  0  0  0  0
    2.3110    2.4626    2.0205 H   0  0  0  0  0  0  0  0  0  0  0  0
    3.0737    0.6543    1.0775 C   0  0  0  0  0  0  0  0  0  0  0  0
    3.7889    1.3597    0.0925 C   0  0  0  0  0  0  0  0  0  0  0  0
    3.6744    2.4524    0.0094 H   0  0  0  0  0  0  0  0  0  0  0  0
    4.6389    0.6777   -0.7886 C   0  0  0  0  0  0  0  0  0  0  0  0
    5.1935    1.2359   -1.5576 H   0  0  0  0  0  0  0  0  0  0  0  0
    4.7703   -0.7161   -0.6958 C   0  0  0  0  0  0  0  0  0  0  0  0
    5.4286   -1.2542   -1.3944 H   0  0  0  0  0  0  0  0  0  0  0  0
    4.0559   -1.4249    0.2824 C   0  0  0  0  0  0  0  0  0  0  0  0
    4.1498   -2.5188    0.3501 H   0  0  0  0  0  0  0  0  0  0  0  0
    3.2109   -0.7440    1.1679 C   0  0  0  0  0  0  0  0  0  0  0  0
    2.6326   -1.2985    1.9213 H   0  0  0  0  0  0  0  0  0  0  0  0
  2  1  1  0  0  0  0
  2 15  1  0  0  0  0
  3  6  1  0  0  0  0
  4  2  1  0  0  0  0
  5  4  1  0  0  0  0
  6  4  1  1  0  0  0
  7  8  1  0  0  0  0
  7  6  1  0  0  0  0
  9  7  2  0  0  0  0
 10  9  1  0  0  0  0
 11  9  1  0  0  0  0
 11 13  2  0  0  0  0
 12 11  1  0  0  0  0
 13  3  1  0  0  0  0
 14 13  1  0  0  0  0
 15 17  1  0  0  0  0
 15 16  1  0  0  0  0
 18 27  1  0  0  0  0
 18 15  1  0  0  0  0
 19 18  2  0  0  0  0
 20 19  1  0  0  0  0
 21 23  2  0  0  0  0
 21 19  1  0  0  0  0
 22 21  1  0  0  0  0
 23 25  1  0  0  0  0
 24 23  1  0  0  0  0
 25 26  1  0  0  0  0
 25 27  2  0  0  0  0
 27 28  1  0  0  0  0
M  END
