3,5
 OpenBabel05122313063D

 15 15  0  0  0  0  0  0  0  0999 V2000
    1.9100    3.2885   -1.1365 Cl  0  0  0  0  0  0  0  0  0  0  0  0
    7.0031    2.2313    0.3566 Cl  0  0  0  0  0  0  0  0  0  0  0  0
    1.5519    0.4668   -0.8136 O   0  5  0  0  0  0  0  0  0  0  0  0
    2.4315   -3.4834   -0.3431 O   0  5  0  0  0  0  0  0  0  0  0  0
    2.4431   -2.2619   -0.2016 N   0  3  0  0  0  2  0  0  0  0  0  0
    2.7576    0.7820   -0.5296 C   0  0  0  0  0  0  0  0  0  0  0  0
    3.8027   -0.1818   -0.1415 C   0  0  0  0  0  0  0  0  0  0  0  0
    3.6257   -1.5841   -0.1747 C   0  0  0  0  0  3  0  0  0  0  0  0
    3.1380    2.1787   -0.6674 C   0  0  0  0  0  0  0  0  0  0  0  0
    4.4201    2.6059   -0.3824 C   0  0  0  0  0  0  0  0  0  0  0  0
    5.4072    1.6543    0.0143 C   0  0  0  0  0  0  0  0  0  0  0  0
    5.1167    0.3034    0.1198 C   0  0  0  0  0  0  0  0  0  0  0  0
    4.5080   -2.2424   -0.1179 H   0  0  0  0  0  0  0  0  0  0  0  0
    5.9052   -0.4047    0.4077 H   0  0  0  0  0  0  0  0  0  0  0  0
    4.6779    3.6707   -0.4533 H   0  0  0  0  0  0  0  0  0  0  0  0
  1  9  1  0  0  0  0
  3  6  1  0  0  0  0
  4  5  1  0  0  0  0
  5  8  1  0  0  0  0
  6  7  1  0  0  0  0
  7 12  2  0  0  0  0
  8  7  1  0  0  0  0
  8 13  1  0  0  0  0
  9  6  2  0  0  0  0
  9 10  1  0  0  0  0
 10 11  2  0  0  0  0
 11 12  1  0  0  0  0
 11  2  1  0  0  0  0
 12 14  1  0  0  0  0
 15 10  1  0  0  0  0
M  CHG  3   3  -1   4  -1   5   1
M  END
