2,4
 OpenBabel05122313063D

 28 28  0  0  0  0  0  0  0  0999 V2000
   -0.1608    1.9829   -0.8918 S   0  0  0  0  0  0  0  0  0  0  0  0
   -0.3613    0.5639   -1.4504 O   0  0  0  0  0  1  0  0  0  0  0  0
   -0.3000    3.1046   -1.8533 O   0  0  0  0  0  1  0  0  0  0  0  0
   -1.2253    1.8947    0.3230 N   0  0  0  0  0  2  0  0  0  0  0  0
    1.5431    2.0139   -0.3092 C   0  0  0  0  0  0  0  0  0  0  0  0
    1.9049    1.3663    0.8825 C   0  0  0  0  0  0  0  0  0  0  0  0
    1.1366    0.8869    1.5059 H   0  0  0  0  0  0  0  0  0  0  0  0
    4.2591    1.8514    0.4008 C   0  0  0  0  0  0  0  0  0  0  0  0
    3.2586    1.2957    1.2268 C   0  0  0  0  0  0  0  0  0  0  0  0
    3.5478    0.7727    2.1518 H   0  0  0  0  0  0  0  0  0  0  0  0
    5.7113    1.7498    0.7896 C   0  0  0  0  0  0  0  0  0  0  0  0
    6.3815    2.0533   -0.0377 H   0  0  0  0  0  0  0  0  0  0  0  0
    5.9731    0.7139    1.0871 H   0  0  0  0  0  0  0  0  0  0  0  0
    5.9379    2.4005    1.6608 H   0  0  0  0  0  0  0  0  0  0  0  0
   -1.6721    3.0846    1.0690 C   0  0  0  0  0  0  0  0  0  0  0  0
   -2.2168    2.6585    1.9379 H   0  0  0  0  0  0  0  0  0  0  0  0
    3.8603    2.5045   -0.7835 C   0  0  0  0  0  0  0  0  0  0  0  0
    4.6247    2.9513   -1.4388 H   0  0  0  0  0  0  0  0  0  0  0  0
    2.5084    2.5937   -1.1452 C   0  0  0  0  0  0  0  0  0  0  0  0
    2.1920    3.1040   -2.0661 H   0  0  0  0  0  0  0  0  0  0  0  0
   -0.5073    3.9219    1.6101 C   0  0  0  0  0  0  0  0  0  0  0  0
    0.1774    3.3094    2.2280 H   0  0  0  0  0  0  0  0  0  0  0  0
   -0.8915    4.7540    2.2334 H   0  0  0  0  0  0  0  0  0  0  0  0
    0.0796    4.3677    0.7803 H   0  0  0  0  0  0  0  0  0  0  0  0
   -2.6510    3.9301    0.2420 C   0  0  0  0  0  0  0  0  0  0  0  0
   -3.4841    3.3051   -0.1352 H   0  0  0  0  0  0  0  0  0  0  0  0
   -2.1361    4.3708   -0.6339 H   0  0  0  0  0  0  0  0  0  0  0  0
   -3.0779    4.7497    0.8551 H   0  0  0  0  0  0  0  0  0  0  0  0
  1  5  1  0  0  0  0
  1  4  1  0  0  0  0
  2  1  1  0  0  0  0
  3  1  1  0  0  0  0
  4 15  1  0  0  0  0
  5  6  1  0  0  0  0
  6  9  2  0  0  0  0
  6  7  1  0  0  0  0
  8 11  1  0  0  0  0
  8  9  1  0  0  0  0
  9 10  1  0  0  0  0
 11 13  1  0  0  0  0
 11 14  1  0  0  0  0
 12 11  1  0  0  0  0
 15 21  1  0  0  0  0
 15 16  1  0  0  0  0
 17  8  2  0  0  0  0
 18 17  1  0  0  0  0
 19 17  1  0  0  0  0
 19  5  2  0  0  0  0
 20 19  1  0  0  0  0
 21 22  1  0  0  0  0
 21 23  1  0  0  0  0
 24 21  1  0  0  0  0
 25 28  1  0  0  0  0
 25 15  1  0  0  0  0
 26 25  1  0  0  0  0
 27 25  1  0  0  0  0
M  END
