2,4
 OpenBabel05122313063D

 42 45  0  0  1  0  0  0  0  0999 V2000
   -5.7030    1.3134   -2.3754 Cl  0  0  0  0  0  0  0  0  0  0  0  0
    1.6172   -1.3069    1.0412 O   0  5  0  0  0  0  0  0  0  0  0  0
   -1.6640   -4.5946   -1.3499 O   0  0  0  0  0  0  0  0  0  0  0  0
   -0.5202   -1.3211   -1.0493 N   0  0  0  0  0  2  0  0  0  0  0  0
    2.6150   -3.4364    1.0091 N   0  0  0  0  0  0  0  0  0  0  0  0
    2.5020   -4.6273    0.3179 N   0  0  0  0  0  0  0  0  0  0  0  0
   -0.2313   -2.6285   -1.0998 C   0  0  1  0  0  3  0  0  0  0  0  0
   -1.0766   -3.5043   -1.9380 C   0  0  0  0  0  0  0  0  0  0  0  0
   -1.4537   -3.4298   -3.2649 C   0  0  0  0  0  0  0  0  0  0  0  0
   -1.1498   -2.6537   -3.9747 H   0  0  0  0  0  0  0  0  0  0  0  0
   -2.3130   -4.5490   -3.5039 C   0  0  0  0  0  0  0  0  0  0  0  0
   -2.7999   -4.8238   -4.4458 H   0  0  0  0  0  0  0  0  0  0  0  0
   -2.4121   -5.2169   -2.3039 C   0  0  0  0  0  0  0  0  0  0  0  0
   -2.9540   -6.1101   -1.9775 H   0  0  0  0  0  0  0  0  0  0  0  0
    1.6831   -2.5061    0.5870 C   0  0  0  0  0  0  0  0  0  0  0  0
    0.8860   -3.1842   -0.4130 C   0  0  0  0  0  0  0  0  0  0  0  0
    1.4901   -4.4987   -0.5206 C   0  0  0  0  0  0  0  0  0  0  0  0
    1.1568   -5.6362   -1.4334 C   0  0  0  0  0  0  0  0  0  0  0  0
    1.9894   -6.3636   -1.4147 H   0  0  0  0  0  0  0  0  0  0  0  0
    0.9972   -5.2906   -2.4741 H   0  0  0  0  0  0  0  0  0  0  0  0
    0.2300   -6.1535   -1.1166 H   0  0  0  0  0  0  0  0  0  0  0  0
    3.6429   -3.3046    1.9800 C   0  0  0  0  0  0  0  0  0  0  0  0
    4.5447   -4.3771    2.1511 C   0  0  0  0  0  0  0  0  0  0  0  0
    4.4174   -5.2702    1.5272 H   0  0  0  0  0  0  0  0  0  0  0  0
    5.5679   -4.2817    3.1011 C   0  0  0  0  0  0  0  0  0  0  0  0
    6.2653   -5.1244    3.2245 H   0  0  0  0  0  0  0  0  0  0  0  0
    5.7098   -3.1279    3.8890 C   0  0  0  0  0  0  0  0  0  0  0  0
    6.5169   -3.0571    4.6332 H   0  0  0  0  0  0  0  0  0  0  0  0
    4.8087   -2.0669    3.7149 C   0  0  0  0  0  0  0  0  0  0  0  0
    4.9055   -1.1558    4.3251 H   0  0  0  0  0  0  0  0  0  0  0  0
    3.7753   -2.1423    2.7704 C   0  0  0  0  0  0  0  0  0  0  0  0
    3.0743   -1.3120    2.6357 H   0  0  0  0  0  0  0  0  0  0  0  0
   -1.7632   -0.7866   -1.4598 C   0  0  0  0  0  0  0  0  0  0  0  0
   -2.9963   -1.3890   -1.1206 C   0  0  0  0  0  0  0  0  0  0  0  0
   -3.0072   -2.3348   -0.5618 H   0  0  0  0  0  0  0  0  0  0  0  0
   -4.2050   -0.7585   -1.4255 C   0  0  0  0  0  0  0  0  0  0  0  0
   -5.1592   -1.2083   -1.1179 H   0  0  0  0  0  0  0  0  0  0  0  0
   -4.1931    0.4889   -2.0714 C   0  0  0  0  0  0  0  0  0  0  0  0
   -2.9804    1.1019   -2.4239 C   0  0  0  0  0  0  0  0  0  0  0  0
   -2.9860    2.0802   -2.9244 H   0  0  0  0  0  0  0  0  0  0  0  0
   -1.7726    0.4656   -2.1127 C   0  0  0  0  0  0  0  0  0  0  0  0
   -0.8131    0.9439   -2.3641 H   0  0  0  0  0  0  0  0  0  0  0  0
  1 38  1  0  0  0  0
  5 22  1  0  0  0  0
  6  5  1  0  0  0  0
  7  4  1  6  0  0  0
  7 16  1  0  0  0  0
  8  3  1  0  0  0  0
  8  7  1  0  0  0  0
  9  8  2  0  0  0  0
 10  9  1  0  0  0  0
 11  9  1  0  0  0  0
 11 13  2  0  0  0  0
 12 11  1  0  0  0  0
 13 14  1  0  0  0  0
 13  3  1  0  0  0  0
 15  5  1  0  0  0  0
 15  2  1  0  0  0  0
 16 15  2  0  0  0  0
 17 16  1  0  0  0  0
 17  6  2  0  0  0  0
 18 19  1  0  0  0  0
 18 21  1  0  0  0  0
 18 17  1  0  0  0  0
 20 18  1  0  0  0  0
 22 23  2  0  0  0  0
 22 31  1  0  0  0  0
 23 25  1  0  0  0  0
 24 23  1  0  0  0  0
 25 26  1  0  0  0  0
 25 27  2  0  0  0  0
 27 28  1  0  0  0  0
 29 27  1  0  0  0  0
 29 30  1  0  0  0  0
 31 29  2  0  0  0  0
 32 31  1  0  0  0  0
 33 34  1  0  0  0  0
 33  4  1  0  0  0  0
 34 35  1  0  0  0  0
 36 34  2  0  0  0  0
 36 37  1  0  0  0  0
 38 36  1  0  0  0  0
 39 41  1  0  0  0  0
 39 38  2  0  0  0  0
 40 39  1  0  0  0  0
 41 33  2  0  0  0  0
 42 41  1  0  0  0  0
M  CHG  1   2  -1
M  END
