1,4
 OpenBabel05122313063D

 18 19  0  0  1  0  0  0  0  0999 V2000
   -1.4158    0.4140    0.0026 N   0  3  0  0  0  2  0  0  0  0  0  0
   -2.4529   -2.4265    0.0040 N   0  0  0  0  0  0  0  0  0  0  0  0
   -1.1857    1.7203    0.0030 O   0  5  0  0  0  0  0  0  0  0  0  0
   -1.1712   -2.3448    0.0049 O   0  5  0  0  0  0  0  0  0  0  0  0
   -5.4382   -2.2791    0.0002 O   0  0  0  0  0  0  0  0  0  0  0  0
   -2.6940    0.0578    0.0008 C   0  0  1  0  0  3  0  0  0  0  0  0
   -3.1716   -1.3188    0.0016 C   0  0  0  0  0  0  0  0  0  0  0  0
   -4.6608   -1.3261    0.0000 C   0  0  0  0  0  0  0  0  0  0  0  0
   -5.0398    0.1247   -0.0021 C   0  0  0  0  0  0  0  0  0  0  0  0
   -3.8723    0.9376   -0.0014 C   0  0  0  0  0  0  0  0  0  0  0  0
   -4.0016    2.3399   -0.0030 C   0  0  0  0  0  0  0  0  0  0  0  0
   -3.1030    2.9678   -0.0025 H   0  0  0  0  0  0  0  0  0  0  0  0
   -5.2944    2.8933   -0.0053 C   0  0  0  0  0  0  0  0  0  0  0  0
   -5.4076    3.9892   -0.0066 H   0  0  0  0  0  0  0  0  0  0  0  0
   -6.4465    2.0804   -0.0060 C   0  0  0  0  0  0  0  0  0  0  0  0
   -7.4442    2.5473   -0.0077 H   0  0  0  0  0  0  0  0  0  0  0  0
   -6.3207    0.6807   -0.0043 C   0  0  0  0  0  0  0  0  0  0  0  0
   -7.1951    0.0112   -0.0047 H   0  0  0  0  0  0  0  0  0  0  0  0
  1  3  1  0  0  0  0
  2  4  1  0  0  0  0
  6  7  1  0  0  0  0
  6  1  1  1  0  0  0
  7  2  2  0  0  0  0
  8  5  2  0  0  0  0
  8  7  1  0  0  0  0
  9 10  1  0  0  0  0
  9  8  1  0  0  0  0
 10  6  1  0  0  0  0
 11 12  1  0  0  0  0
 11 10  2  0  0  0  0
 13 11  1  0  0  0  0
 14 13  1  0  0  0  0
 15 13  2  0  0  0  0
 15 17  1  0  0  0  0
 16 15  1  0  0  0  0
 17  9  2  0  0  0  0
 18 17  1  0  0  0  0
M  CHG  3   1   1   3  -1   4  -1
M  END
