1,12
 OpenBabel05122313063D

 36 39  0  0  0  0  0  0  0  0999 V2000
    1.7537   -0.1993   -2.4930 O   0  5  0  0  0  0  0  0  0  0  0  0
    2.3669   -1.2667   -2.0587 C   0  0  0  0  0  0  0  0  0  0  0  0
    3.7111   -1.5592   -2.4386 C   0  0  0  0  0  0  0  0  0  0  0  0
    4.2115   -0.8444   -3.1076 H   0  0  0  0  0  0  0  0  0  0  0  0
    4.3581   -2.7039   -1.9774 C   0  0  0  0  0  0  0  0  0  0  0  0
    5.3969   -2.8993   -2.2863 H   0  0  0  0  0  0  0  0  0  0  0  0
    3.7082   -3.6073   -1.1024 C   0  0  0  0  0  0  0  0  0  0  0  0
    4.2385   -4.4930   -0.7233 H   0  0  0  0  0  0  0  0  0  0  0  0
    2.3949   -3.3521   -0.7030 C   0  0  0  0  0  0  0  0  0  0  0  0
    1.9010   -4.0316    0.0086 H   0  0  0  0  0  0  0  0  0  0  0  0
    1.7101   -2.2061   -1.1681 C   0  0  0  0  0  0  0  0  0  0  0  0
    0.4074   -1.8493   -0.7937 N   0  0  0  0  0  2  0  0  0  0  0  0
   -0.4504   -2.6833   -0.2597 C   0  0  0  0  0  3  0  0  0  0  0  0
   -0.1833   -3.7579   -0.1934 H   0  0  0  0  0  0  0  0  0  0  0  0
   -1.7633   -2.3211    0.2394 C   0  0  0  0  0  0  0  0  0  0  0  0
   -2.7095   -3.3595    0.4608 C   0  0  0  0  0  0  0  0  0  0  0  0
   -2.4071   -4.4011    0.2695 H   0  0  0  0  0  0  0  0  0  0  0  0
   -4.0106   -3.0809    0.8857 C   0  0  0  0  0  0  0  0  0  0  0  0
   -4.7318   -3.8981    1.0373 H   0  0  0  0  0  0  0  0  0  0  0  0
   -4.3808   -1.7421    1.1123 C   0  0  0  0  0  0  0  0  0  0  0  0
   -5.6471   -1.1508    1.5481 C   0  0  0  0  0  0  0  0  0  0  0  0
   -6.8857   -1.7434    1.8532 C   0  0  0  0  0  0  0  0  0  0  0  0
   -7.0194   -2.8339    1.7866 H   0  0  0  0  0  0  0  0  0  0  0  0
   -7.9512   -0.9182    2.2412 C   0  0  0  0  0  0  0  0  0  0  0  0
   -8.9279   -1.3643    2.4828 H   0  0  0  0  0  0  0  0  0  0  0  0
   -7.7848    0.4783    2.3225 C   0  0  0  0  0  0  0  0  0  0  0  0
   -8.6338    1.1094    2.6265 H   0  0  0  0  0  0  0  0  0  0  0  0
   -6.5477    1.0747    2.0183 C   0  0  0  0  0  0  0  0  0  0  0  0
   -6.4252    2.1672    2.0798 H   0  0  0  0  0  0  0  0  0  0  0  0
   -5.4785    0.2594    1.6340 C   0  0  0  0  0  0  0  0  0  0  0  0
   -4.0673    0.6376    1.2506 C   0  0  0  0  0  0  0  0  0  0  0  0
   -4.0441    1.3252    0.3775 H   0  0  0  0  0  0  0  0  0  0  0  0
   -3.5344    1.1667    2.0706 H   0  0  0  0  0  0  0  0  0  0  0  0
   -3.4319   -0.6945    0.9283 C   0  0  0  0  0  0  0  0  0  0  0  0
   -2.1392   -0.9771    0.5047 C   0  0  0  0  0  0  0  0  0  0  0  0
   -1.4053   -0.1647    0.4019 H   0  0  0  0  0  0  0  0  0  0  0  0
  1  2  1  0  0  0  0
  2 11  1  0  0  0  0
  3  2  2  0  0  0  0
  3  5  1  0  0  0  0
  4  3  1  0  0  0  0
  5  7  2  0  0  0  0
  6  5  1  0  0  0  0
  7  8  1  0  0  0  0
  7  9  1  0  0  0  0
  9 10  1  0  0  0  0
 11 12  1  0  0  0  0
 11  9  2  0  0  0  0
 12 13  1  0  0  0  0
 13 14  1  0  0  0  0
 13 15  1  0  0  0  0
 15 16  2  0  0  0  0
 15 35  1  0  0  0  0
 16 18  1  0  0  0  0
 17 16  1  0  0  0  0
 18 19  1  0  0  0  0
 18 20  2  0  0  0  0
 20 21  1  0  0  0  0
 21 30  2  0  0  0  0
 21 22  1  0  0  0  0
 22 24  2  0  0  0  0
 23 22  1  0  0  0  0
 24 26  1  0  0  0  0
 24 25  1  0  0  0  0
 26 27  1  0  0  0  0
 28 29  1  0  0  0  0
 28 26  2  0  0  0  0
 30 28  1  0  0  0  0
 31 30  1  0  0  0  0
 31 33  1  0  0  0  0
 32 31  1  0  0  0  0
 34 20  1  0  0  0  0
 34 31  1  0  0  0  0
 35 34  2  0  0  0  0
 36 35  1  0  0  0  0
M  CHG  1   1  -1
M  END
