3,4
 OpenBabel05122313063D

 22 23  0  0  0  0  0  0  0  0999 V2000
    3.4962    2.3060   -2.2111 Cl  0  0  0  0  0  0  0  0  0  0  0  0
    7.2184   -0.9968   -0.0238 Cl  0  0  0  0  0  0  0  0  0  0  0  0
    1.5899    0.6395   -0.8069 O   0  5  0  0  0  0  0  0  0  0  0  0
    0.9191   -1.5333    1.0663 N   0  0  0  0  0  2  0  0  0  0  0  0
    3.1697   -0.8757    0.2622 C   0  0  0  0  0  0  0  0  0  0  0  0
    2.8018    0.2358   -0.5906 C   0  0  0  0  0  0  0  0  0  0  0  0
    3.8950    0.9366   -1.2161 C   0  0  0  0  0  0  0  0  0  0  0  0
    5.2252    0.5675   -1.0475 C   0  0  0  0  0  0  0  0  0  0  0  0
    6.0198    1.1356   -1.5493 H   0  0  0  0  0  0  0  0  0  0  0  0
    5.5451   -0.5365   -0.2247 C   0  0  0  0  0  0  0  0  0  0  0  0
    4.5379   -1.2428    0.4175 C   0  0  0  0  0  0  0  0  0  0  0  0
    4.7968   -2.0970    1.0602 H   0  0  0  0  0  0  0  0  0  0  0  0
    2.2178   -1.6794    0.9907 C   0  0  0  0  0  3  0  0  0  0  0  0
    2.6657   -2.5222    1.5615 H   0  0  0  0  0  0  0  0  0  0  0  0
    0.1687   -2.4717    1.8460 C   0  0  0  0  0  0  0  0  0  0  0  0
    0.7916   -3.1432    2.4657 H   0  0  0  0  0  0  0  0  0  0  0  0
   -1.1807   -2.0625    2.3984 C   0  0  0  0  0  0  0  0  0  0  0  0
   -1.5291   -1.0441    2.1617 H   0  0  0  0  0  0  0  0  0  0  0  0
   -1.4399   -2.4053    3.4118 H   0  0  0  0  0  0  0  0  0  0  0  0
   -1.1112   -3.0541    1.2695 C   0  0  0  0  0  0  0  0  0  0  0  0
   -1.3094   -4.1163    1.4799 H   0  0  0  0  0  0  0  0  0  0  0  0
   -1.4100   -2.7064    0.2677 H   0  0  0  0  0  0  0  0  0  0  0  0
  1  7  1  0  0  0  0
  3  6  1  0  0  0  0
  4 15  1  0  0  0  0
  5 11  1  0  0  0  0
  5 13  1  0  0  0  0
  6  5  2  0  0  0  0
  7  8  2  0  0  0  0
  7  6  1  0  0  0  0
  8 10  1  0  0  0  0
  9  8  1  0  0  0  0
 10  2  1  0  0  0  0
 10 11  2  0  0  0  0
 11 12  1  0  0  0  0
 13  4  1  0  0  0  0
 13 14  1  0  0  0  0
 15 17  1  0  0  0  0
 15 16  1  0  0  0  0
 17 19  1  0  0  0  0
 18 17  1  0  0  0  0
 20 21  1  0  0  0  0
 20 15  1  0  0  0  0
 20 17  1  0  0  0  0
 22 20  1  0  0  0  0
M  CHG  1   3  -1
M  END
