1,2
 OpenBabel05122313063D

 51 55  0  0  1  0  0  0  0  0999 V2000
    2.0901    0.3321   -0.3416 O   0  0  0  0  0  1  0  0  0  0  0  0
   -0.6764   -0.6146    0.0416 N   0  0  0  0  0  2  0  0  0  0  0  0
    2.0697    2.6749   -0.2436 N   0  0  0  0  0  0  0  0  0  0  0  0
    1.1551    3.7007   -0.1028 N   0  0  0  0  0  0  0  0  0  0  0  0
    1.4523    1.4352   -0.2249 C   0  0  2  0  0  3  0  0  0  0  0  0
   -0.0373    3.1412    0.0211 C   0  0  0  0  0  0  0  0  0  0  0  0
    0.0580    1.6949   -0.0279 C   0  0  0  0  0  0  0  0  0  0  0  0
    3.4463    2.9852   -0.3479 C   0  0  0  0  0  0  0  0  0  0  0  0
    4.4044    2.0073   -0.6960 C   0  0  0  0  0  0  0  0  0  0  0  0
    4.0775    0.9834   -0.9083 H   0  0  0  0  0  0  0  0  0  0  0  0
    5.7575    2.3660   -0.7783 C   0  0  0  0  0  0  0  0  0  0  0  0
    6.4964    1.5979   -1.0546 H   0  0  0  0  0  0  0  0  0  0  0  0
    6.1743    3.6815   -0.5252 C   0  0  0  0  0  0  0  0  0  0  0  0
    7.2386    3.9521   -0.5938 H   0  0  0  0  0  0  0  0  0  0  0  0
    5.2138    4.6500   -0.1897 C   0  0  0  0  0  0  0  0  0  0  0  0
    5.5222    5.6885    0.0063 H   0  0  0  0  0  0  0  0  0  0  0  0
    3.8586    4.3126   -0.0995 C   0  0  0  0  0  0  0  0  0  0  0  0
    3.0923    5.0554    0.1552 H   0  0  0  0  0  0  0  0  0  0  0  0
   -1.2382    4.0240    0.1498 C   0  0  0  0  0  0  0  0  0  0  0  0
   -1.7498    3.8934    1.1241 H   0  0  0  0  0  0  0  0  0  0  0  0
   -1.9913    3.8036   -0.6327 H   0  0  0  0  0  0  0  0  0  0  0  0
   -0.9141    5.0772    0.0547 H   0  0  0  0  0  0  0  0  0  0  0  0
   -0.9344    0.6884    0.1188 C   0  0  0  0  0  0  0  0  0  0  0  0
   -2.3504    1.1140    0.3676 C   0  0  0  0  0  0  0  0  0  0  0  0
   -3.2536    1.1440   -0.6878 C   0  0  0  0  0  0  0  0  0  0  0  0
   -2.9190    0.8622   -1.6981 H   0  0  0  0  0  0  0  0  0  0  0  0
   -4.6075    1.5352   -0.4837 C   0  0  0  0  0  0  0  0  0  0  0  0
   -5.5522    1.5764   -1.5510 C   0  0  0  0  0  0  0  0  0  0  0  0
   -5.2182    1.2987   -2.5628 H   0  0  0  0  0  0  0  0  0  0  0  0
   -6.8656    1.9574   -1.3210 C   0  0  0  0  0  0  0  0  0  0  0  0
   -7.5850    1.9849   -2.1534 H   0  0  0  0  0  0  0  0  0  0  0  0
   -7.2906    2.3143   -0.0121 C   0  0  0  0  0  0  0  0  0  0  0  0
   -8.3354    2.6156    0.1577 H   0  0  0  0  0  0  0  0  0  0  0  0
   -6.3957    2.2845    1.0472 C   0  0  0  0  0  0  0  0  0  0  0  0
   -6.7219    2.5607    2.0622 H   0  0  0  0  0  0  0  0  0  0  0  0
   -5.0387    1.8975    0.8454 C   0  0  0  0  0  0  0  0  0  0  0  0
   -4.0896    1.8549    1.9087 C   0  0  0  0  0  0  0  0  0  0  0  0
   -4.4173    2.1309    2.9231 H   0  0  0  0  0  0  0  0  0  0  0  0
   -2.7773    1.4764    1.6782 C   0  0  0  0  0  0  0  0  0  0  0  0
   -2.0492    1.4540    2.5032 H   0  0  0  0  0  0  0  0  0  0  0  0
   -1.7455   -1.5475    0.2166 C   0  0  0  0  0  0  0  0  0  0  0  0
   -2.2921   -2.1904   -0.9123 C   0  0  0  0  0  0  0  0  0  0  0  0
   -1.8875   -1.9293   -1.9020 H   0  0  0  0  0  0  0  0  0  0  0  0
   -3.3003   -3.1488   -0.7464 C   0  0  0  0  0  0  0  0  0  0  0  0
   -3.7284   -3.6441   -1.6316 H   0  0  0  0  0  0  0  0  0  0  0  0
   -3.7678   -3.4783    0.5386 C   0  0  0  0  0  0  0  0  0  0  0  0
   -4.5593   -4.2321    0.6637 H   0  0  0  0  0  0  0  0  0  0  0  0
   -3.2226   -2.8358    1.6609 C   0  0  0  0  0  0  0  0  0  0  0  0
   -3.5860   -3.0832    2.6700 H   0  0  0  0  0  0  0  0  0  0  0  0
   -2.2147   -1.8710    1.5036 C   0  0  0  0  0  0  0  0  0  0  0  0
   -1.7826   -1.3591    2.3759 H   0  0  0  0  0  0  0  0  0  0  0  0
  2 23  1  0  0  0  0
  2 41  1  0  0  0  0
  3  5  1  0  0  0  0
  3  4  1  0  0  0  0
  4  6  2  0  0  0  0
  5  1  1  1  0  0  0
  5  7  1  0  0  0  0
  6 19  1  0  0  0  0
  7  6  1  0  0  0  0
  7 23  2  0  0  0  0
  8  3  1  0  0  0  0
  8 17  1  0  0  0  0
  9  8  2  0  0  0  0
 10  9  1  0  0  0  0
 11  9  1  0  0  0  0
 11 13  2  0  0  0  0
 12 11  1  0  0  0  0
 13 15  1  0  0  0  0
 14 13  1  0  0  0  0
 15 17  2  0  0  0  0
 15 16  1  0  0  0  0
 17 18  1  0  0  0  0
 19 20  1  0  0  0  0
 21 19  1  0  0  0  0
 22 19  1  0  0  0  0
 23 24  1  0  0  0  0
 24 39  1  0  0  0  0
 25 27  1  0  0  0  0
 25 24  2  0  0  0  0
 26 25  1  0  0  0  0
 27 36  1  0  0  0  0
 28 30  1  0  0  0  0
 28 27  2  0  0  0  0
 29 28  1  0  0  0  0
 30 32  2  0  0  0  0
 31 30  1  0  0  0  0
 32 33  1  0  0  0  0
 32 34  1  0  0  0  0
 34 35  1  0  0  0  0
 36 34  2  0  0  0  0
 36 37  1  0  0  0  0
 37 38  1  0  0  0  0
 39 37  2  0  0  0  0
 39 40  1  0  0  0  0
 41 50  1  0  0  0  0
 42 44  1  0  0  0  0
 42 41  2  0  0  0  0
 43 42  1  0  0  0  0
 44 46  2  0  0  0  0
 45 44  1  0  0  0  0
 46 47  1  0  0  0  0
 46 48  1  0  0  0  0
 48 49  1  0  0  0  0
 50 48  2  0  0  0  0
 50 51  1  0  0  0  0
M  END
