1,2
 OpenBabel05122313063D

 41 43  0  0  1  0  0  0  0  0999 V2000
   -1.2203   -0.3603   -0.3592 O   0  5  0  0  0  0  0  0  0  0  0  0
    1.3636    0.9436    0.1629 N   0  0  0  0  0  2  0  0  0  0  0  0
   -3.0089    2.6132    0.0579 N   0  0  0  0  0  0  0  0  0  0  0  0
   -2.8884    1.2632   -0.1816 N   0  0  0  0  0  0  0  0  0  0  0  0
    2.7809    1.0100    0.3248 C   0  0  0  0  0  0  0  0  0  0  0  0
    3.3472    1.0589    1.6154 C   0  0  0  0  0  0  0  0  0  0  0  0
    2.6789    1.1106    2.4883 H   0  0  0  0  0  0  0  0  0  0  0  0
    4.7421    1.0438    1.7739 C   0  0  0  0  0  0  0  0  0  0  0  0
    5.1754    1.0796    2.7851 H   0  0  0  0  0  0  0  0  0  0  0  0
    5.5807    0.9856    0.6493 C   0  0  0  0  0  0  0  0  0  0  0  0
    6.6737    0.9729    0.7750 H   0  0  0  0  0  0  0  0  0  0  0  0
    5.0147    0.9475   -0.6374 C   0  0  0  0  0  0  0  0  0  0  0  0
    5.6660    0.9047   -1.5239 H   0  0  0  0  0  0  0  0  0  0  0  0
    3.6232    0.9584   -0.8055 C   0  0  0  0  0  0  0  0  0  0  0  0
    3.1520    0.8847   -1.7976 H   0  0  0  0  0  0  0  0  0  0  0  0
    0.6355    2.0553    0.2021 C   0  0  1  0  0  3  0  0  0  0  0  0
    1.3367    3.3976    0.2984 C   0  0  0  0  0  0  0  0  0  0  0  0
    2.3070    3.2826    0.8155 H   0  0  0  0  0  0  0  0  0  0  0  0
    0.7308    4.0882    0.9106 H   0  0  0  0  0  0  0  0  0  0  0  0
    1.5683    3.9916   -1.1009 C   0  0  0  0  0  0  0  0  0  0  0  0
    2.2264    3.3353   -1.7030 H   0  0  0  0  0  0  0  0  0  0  0  0
    2.0454    4.9892   -1.0270 H   0  0  0  0  0  0  0  0  0  0  0  0
    0.6158    4.0979   -1.6567 H   0  0  0  0  0  0  0  0  0  0  0  0
   -0.7886    2.0376    0.0728 C   0  0  0  0  0  0  0  0  0  0  0  0
   -1.7817    3.0892    0.2047 C   0  0  0  0  0  0  0  0  0  0  0  0
   -1.5622    0.8604   -0.1842 C   0  0  0  0  0  0  0  0  0  0  0  0
   -1.6413    4.5560    0.4794 C   0  0  0  0  0  0  0  0  0  0  0  0
   -2.6508    5.0076    0.4605 H   0  0  0  0  0  0  0  0  0  0  0  0
   -1.0139    5.0708   -0.2756 H   0  0  0  0  0  0  0  0  0  0  0  0
   -1.1958    4.7546    1.4766 H   0  0  0  0  0  0  0  0  0  0  0  0
   -4.0541    0.4740   -0.3248 C   0  0  0  0  0  0  0  0  0  0  0  0
   -5.2892    1.0114    0.0964 C   0  0  0  0  0  0  0  0  0  0  0  0
   -5.3008    2.0286    0.5082 H   0  0  0  0  0  0  0  0  0  0  0  0
   -6.4579    0.2513   -0.0270 C   0  0  0  0  0  0  0  0  0  0  0  0
   -7.4156    0.6805    0.3055 H   0  0  0  0  0  0  0  0  0  0  0  0
   -6.4165   -1.0454   -0.5654 C   0  0  0  0  0  0  0  0  0  0  0  0
   -7.3377   -1.6400   -0.6576 H   0  0  0  0  0  0  0  0  0  0  0  0
   -5.1870   -1.5697   -0.9928 C   0  0  0  0  0  0  0  0  0  0  0  0
   -5.1412   -2.5781   -1.4323 H   0  0  0  0  0  0  0  0  0  0  0  0
   -4.0055   -0.8224   -0.8831 C   0  0  0  0  0  0  0  0  0  0  0  0
   -3.0486   -1.2252   -1.2340 H   0  0  0  0  0  0  0  0  0  0  0  0
  1 26  1  0  0  0  0
  2  5  1  0  0  0  0
  3 25  2  0  0  0  0
  4  3  1  0  0  0  0
  5  6  1  0  0  0  0
  6  8  2  0  0  0  0
  6  7  1  0  0  0  0
  8  9  1  0  0  0  0
 10 11  1  0  0  0  0
 10  8  1  0  0  0  0
 12 10  2  0  0  0  0
 13 12  1  0  0  0  0
 14 12  1  0  0  0  0
 14  5  2  0  0  0  0
 15 14  1  0  0  0  0
 16  2  1  6  0  0  0
 16 17  1  0  0  0  0
 17 18  1  0  0  0  0
 17 19  1  0  0  0  0
 20 22  1  0  0  0  0
 20 17  1  0  0  0  0
 21 20  1  0  0  0  0
 23 20  1  0  0  0  0
 24 16  1  0  0  0  0
 24 25  1  0  0  0  0
 25 27  1  0  0  0  0
 26  4  1  0  0  0  0
 26 24  2  0  0  0  0
 27 30  1  0  0  0  0
 28 27  1  0  0  0  0
 29 27  1  0  0  0  0
 31  4  1  0  0  0  0
 31 32  1  0  0  0  0
 32 33  1  0  0  0  0
 34 32  2  0  0  0  0
 34 35  1  0  0  0  0
 36 34  1  0  0  0  0
 37 36  1  0  0  0  0
 38 40  1  0  0  0  0
 38 36  2  0  0  0  0
 39 38  1  0  0  0  0
 40 31  2  0  0  0  0
 41 40  1  0  0  0  0
M  CHG  1   1  -1
M  END
