2,3
 OpenBabel05122313063D

 43 44  0  0  0  0  0  0  0  0999 V2000
   -5.4663   -2.6596   -0.2578 N   0  0  0  0  0  0  0  0  0  0  0  0
    1.0748   -1.5130    0.1276 N   0  0  0  0  0  2  0  0  0  0  0  0
   -1.4668   -0.0960    0.0628 O   0  5  0  0  0  0  0  0  0  0  0  0
    6.4826   -2.9124    0.6079 O   0  0  0  0  0  0  0  0  0  0  0  0
   -6.4013   -4.5247   -1.6437 C   0  0  0  0  0  0  0  0  0  0  0  0
   -6.9769   -5.4709   -1.5840 H   0  0  0  0  0  0  0  0  0  0  0  0
   -5.4300   -4.7392   -2.1324 H   0  0  0  0  0  0  0  0  0  0  0  0
   -6.9603   -3.8265   -2.2995 H   0  0  0  0  0  0  0  0  0  0  0  0
   -6.1928   -3.9231   -0.2506 C   0  0  0  0  0  0  0  0  0  0  0  0
   -7.1754   -3.7424    0.2348 H   0  0  0  0  0  0  0  0  0  0  0  0
   -5.6683   -4.6440    0.4092 H   0  0  0  0  0  0  0  0  0  0  0  0
   -6.2632   -1.4407   -0.3435 C   0  0  0  0  0  0  0  0  0  0  0  0
   -7.2100   -1.6944   -0.8651 H   0  0  0  0  0  0  0  0  0  0  0  0
   -5.7420   -0.7154   -1.0025 H   0  0  0  0  0  0  0  0  0  0  0  0
   -6.5690   -0.7985    1.0137 C   0  0  0  0  0  0  0  0  0  0  0  0
   -7.1499    0.1372    0.8829 H   0  0  0  0  0  0  0  0  0  0  0  0
   -5.6342   -0.5453    1.5515 H   0  0  0  0  0  0  0  0  0  0  0  0
   -7.1571   -1.4833    1.6581 H   0  0  0  0  0  0  0  0  0  0  0  0
   -4.0874   -2.6020   -0.1969 C   0  0  0  0  0  0  0  0  0  0  0  0
   -3.4115   -1.3691   -0.1081 C   0  0  0  0  0  0  0  0  0  0  0  0
   -3.9451   -0.4128   -0.0586 H   0  0  0  0  0  0  0  0  0  0  0  0
   -1.9971   -1.2732   -0.0450 C   0  0  0  0  0  0  0  0  0  0  0  0
   -1.2110   -2.4885   -0.0763 C   0  0  0  0  0  0  0  0  0  0  0  0
   -1.9149   -3.7275   -0.1621 C   0  0  0  0  0  3  0  0  0  0  0  0
   -1.3268   -4.6594   -0.1860 H   0  0  0  0  0  0  0  0  0  0  0  0
   -3.2929   -3.8045   -0.2249 C   0  0  0  0  0  0  0  0  0  0  0  0
   -3.7683   -4.7890   -0.3113 H   0  0  0  0  0  0  0  0  0  0  0  0
    0.2034   -2.5127    0.0403 C   0  0  0  0  0  0  0  0  0  0  0  0
    0.6452   -3.5266    0.1073 H   0  0  0  0  0  0  0  0  0  0  0  0
    2.4366   -1.8980    0.2972 C   0  0  0  0  0  0  0  0  0  0  0  0
    3.0728   -2.7346   -0.6460 C   0  0  0  0  0  0  0  0  0  0  0  0
    2.5072   -3.0837   -1.5229 H   0  0  0  0  0  0  0  0  0  0  0  0
    4.4190   -3.0737   -0.5029 C   0  0  0  0  0  0  0  0  0  0  0  0
    4.9354   -3.6925   -1.2503 H   0  0  0  0  0  0  0  0  0  0  0  0
    5.1683   -2.5732    0.5827 C   0  0  0  0  0  0  0  0  0  0  0  0
    4.5322   -1.7565    1.5421 C   0  0  0  0  0  0  0  0  0  0  0  0
    5.0908   -1.3533    2.3968 H   0  0  0  0  0  0  0  0  0  0  0  0
    3.1772   -1.4293    1.3964 C   0  0  0  0  0  0  0  0  0  0  0  0
    2.6830   -0.7691    2.1238 H   0  0  0  0  0  0  0  0  0  0  0  0
    7.3364   -2.2132    1.4953 C   0  0  0  0  0  0  0  0  0  0  0  0
    8.3613   -2.5759    1.2927 H   0  0  0  0  0  0  0  0  0  0  0  0
    7.0916   -2.4158    2.5626 H   0  0  0  0  0  0  0  0  0  0  0  0
    7.2945   -1.1179    1.3078 H   0  0  0  0  0  0  0  0  0  0  0  0
  1  9  1  0  0  0  0
  1 19  1  0  0  0  0
  2 30  1  0  0  0  0
  4 40  1  0  0  0  0
  5  6  1  0  0  0  0
  5  9  1  0  0  0  0
  7  5  1  0  0  0  0
  8  5  1  0  0  0  0
  9 10  1  0  0  0  0
  9 11  1  0  0  0  0
 12  1  1  0  0  0  0
 12 15  1  0  0  0  0
 13 12  1  0  0  0  0
 14 12  1  0  0  0  0
 15 17  1  0  0  0  0
 15 18  1  0  0  0  0
 16 15  1  0  0  0  0
 19 20  1  0  0  0  0
 20 21  1  0  0  0  0
 20 22  2  0  0  0  0
 22  3  1  0  0  0  0
 23 22  1  0  0  0  0
 23 28  2  0  0  0  0
 24 23  1  0  0  0  0
 25 24  1  0  0  0  0
 26 19  2  0  0  0  0
 26 24  1  0  0  0  0
 27 26  1  0  0  0  0
 28 29  1  0  0  0  0
 28  2  1  0  0  0  0
 30 38  1  0  0  0  0
 31 33  1  0  0  0  0
 31 30  2  0  0  0  0
 32 31  1  0  0  0  0
 33 35  2  0  0  0  0
 34 33  1  0  0  0  0
 35  4  1  0  0  0  0
 35 36  1  0  0  0  0
 36 37  1  0  0  0  0
 38 36  2  0  0  0  0
 38 39  1  0  0  0  0
 40 42  1  0  0  0  0
 41 40  1  0  0  0  0
 43 40  1  0  0  0  0
M  CHG  1   3  -1
M  END
