1,2
 OpenBabel05122313063D

 31 33  0  0  0  0  0  0  0  0999 V2000
   -0.5539    0.7901   -1.5958 N   0  0  0  0  0  2  0  0  0  0  0  0
   -1.6258   -1.3830    0.1812 O   0  5  0  0  0  0  0  0  0  0  0  0
   -2.6806   -1.1813   -0.5412 C   0  0  0  0  0  0  0  0  0  0  0  0
   -2.8084   -0.2017   -1.5438 C   0  0  0  0  0  0  0  0  0  0  0  0
   -3.7932   -0.1146   -2.0185 H   0  0  0  0  0  0  0  0  0  0  0  0
   -1.8344    0.7110   -2.0575 C   0  0  0  0  0  0  0  0  0  0  0  0
   -2.2484    1.5963   -3.1229 C   0  0  0  0  0  0  0  0  0  0  0  0
   -3.2843    1.5196   -3.4827 H   0  0  0  0  0  0  0  0  0  0  0  0
   -1.3785    2.5054   -3.6684 C   0  0  0  0  0  0  0  0  0  0  0  0
   -1.7017    3.1792   -4.4775 H   0  0  0  0  0  0  0  0  0  0  0  0
   -0.0326    2.5868   -3.1897 C   0  0  0  0  0  0  0  0  0  0  0  0
    0.9204    3.5013   -3.7072 C   0  0  0  0  0  3  0  0  0  0  0  0
    0.6111    4.1820   -4.5159 H   0  0  0  0  0  0  0  0  0  0  0  0
    2.2174    3.5376   -3.2057 C   0  0  0  0  0  0  0  0  0  0  0  0
    2.9510    4.2493   -3.6121 H   0  0  0  0  0  0  0  0  0  0  0  0
    2.5900    2.6479   -2.1693 C   0  0  0  0  0  0  0  0  0  0  0  0
    3.6161    2.6664   -1.7722 H   0  0  0  0  0  0  0  0  0  0  0  0
    1.6766    1.7410   -1.6429 C   0  0  0  0  0  0  0  0  0  0  0  0
    1.9873    1.0485   -0.8483 H   0  0  0  0  0  0  0  0  0  0  0  0
    0.3428    1.6883   -2.1339 C   0  0  0  0  0  0  0  0  0  0  0  0
   -3.8486   -2.0627   -0.2151 C   0  0  0  0  0  0  0  0  0  0  0  0
   -3.8315   -2.7589    1.0140 C   0  0  0  0  0  0  0  0  0  0  0  0
   -2.9600   -2.6230    1.6696 H   0  0  0  0  0  0  0  0  0  0  0  0
   -4.8945   -3.5934    1.3801 C   0  0  0  0  0  0  0  0  0  0  0  0
   -4.8674   -4.1219    2.3454 H   0  0  0  0  0  0  0  0  0  0  0  0
   -5.9913   -3.7588    0.5186 C   0  0  0  0  0  0  0  0  0  0  0  0
   -6.8259   -4.4177    0.8030 H   0  0  0  0  0  0  0  0  0  0  0  0
   -6.0131   -3.0848   -0.7137 C   0  0  0  0  0  0  0  0  0  0  0  0
   -6.8610   -3.2216   -1.4021 H   0  0  0  0  0  0  0  0  0  0  0  0
   -4.9526   -2.2446   -1.0773 C   0  0  0  0  0  0  0  0  0  0  0  0
   -4.9748   -1.7469   -2.0576 H   0  0  0  0  0  0  0  0  0  0  0  0
  3 21  1  0  0  0  0
  3  2  1  0  0  0  0
  4  3  2  0  0  0  0
  5  4  1  0  0  0  0
  6  1  1  0  0  0  0
  6  4  1  0  0  0  0
  7  6  2  0  0  0  0
  8  7  1  0  0  0  0
  9 11  2  0  0  0  0
  9  7  1  0  0  0  0
 10  9  1  0  0  0  0
 11 20  1  0  0  0  0
 12 14  1  0  0  0  0
 12 11  1  0  0  0  0
 13 12  1  0  0  0  0
 14 16  2  0  0  0  0
 15 14  1  0  0  0  0
 16 17  1  0  0  0  0
 16 18  1  0  0  0  0
 18 19  1  0  0  0  0
 20 18  2  0  0  0  0
 20  1  1  0  0  0  0
 21 22  1  0  0  0  0
 22 24  2  0  0  0  0
 22 23  1  0  0  0  0
 24 25  1  0  0  0  0
 26 27  1  0  0  0  0
 26 24  1  0  0  0  0
 28 26  2  0  0  0  0
 29 28  1  0  0  0  0
 30 28  1  0  0  0  0
 30 21  2  0  0  0  0
 31 30  1  0  0  0  0
M  CHG  1   2  -1
M  END
