1,2
 OpenBabel05122313063D

 32 33  0  0  1  0  0  0  0  0999 V2000
   -1.5189    0.1877    0.4505 O   0  0  0  0  0  1  0  0  0  0  0  0
    0.9072   -1.2600   -0.2248 N   0  0  0  0  0  2  0  0  0  0  0  0
   -3.5539   -0.9394    0.1963 C   0  0  0  0  0  0  0  0  0  0  0  0
   -1.3669   -2.1175   -0.1872 C   0  0  0  0  0  0  0  0  0  0  0  0
   -1.9617   -3.0263   -0.3326 H   0  0  0  0  0  0  0  0  0  0  0  0
   -4.2060    0.0393    0.9789 C   0  0  0  0  0  0  0  0  0  0  0  0
   -3.5867    0.7520    1.5417 H   0  0  0  0  0  0  0  0  0  0  0  0
   -2.0585   -0.9461    0.1538 C   0  0  1  0  0  3  0  0  0  0  0  0
   -4.3395   -1.8599   -0.5312 C   0  0  0  0  0  0  0  0  0  0  0  0
   -3.8511   -2.6073   -1.1732 H   0  0  0  0  0  0  0  0  0  0  0  0
    0.0330   -2.2539   -0.3720 C   0  0  0  0  0  0  0  0  0  0  0  0
   -5.7385   -1.8088   -0.4693 C   0  0  0  0  0  0  0  0  0  0  0  0
   -6.3368   -2.5285   -1.0487 H   0  0  0  0  0  0  0  0  0  0  0  0
    0.5470   -3.6240   -0.7641 C   0  0  0  0  0  0  0  0  0  0  0  0
    1.3431   -3.9529   -0.0664 H   0  0  0  0  0  0  0  0  0  0  0  0
    1.0014   -3.6150   -1.7749 H   0  0  0  0  0  0  0  0  0  0  0  0
   -0.2693   -4.3678   -0.7520 H   0  0  0  0  0  0  0  0  0  0  0  0
    2.2912   -1.4911   -0.4673 C   0  0  0  0  0  0  0  0  0  0  0  0
   -5.6041    0.0856    1.0442 C   0  0  0  0  0  0  0  0  0  0  0  0
   -6.0977    0.8466    1.6679 H   0  0  0  0  0  0  0  0  0  0  0  0
   -6.3762   -0.8384    0.3208 C   0  0  0  0  0  0  0  0  0  0  0  0
   -7.4752   -0.8011    0.3702 H   0  0  0  0  0  0  0  0  0  0  0  0
    2.8064   -1.4664   -1.7792 C   0  0  0  0  0  0  0  0  0  0  0  0
    2.1149   -1.3116   -2.6215 H   0  0  0  0  0  0  0  0  0  0  0  0
    3.1647   -1.6884    0.6231 C   0  0  0  0  0  0  0  0  0  0  0  0
    2.7333   -1.6783    1.6360 H   0  0  0  0  0  0  0  0  0  0  0  0
    4.1844   -1.6244   -1.9976 C   0  0  0  0  0  0  0  0  0  0  0  0
    4.5803   -1.5975   -3.0245 H   0  0  0  0  0  0  0  0  0  0  0  0
    5.0547   -1.8139   -0.9123 C   0  0  0  0  0  0  0  0  0  0  0  0
    6.1346   -1.9360   -1.0850 H   0  0  0  0  0  0  0  0  0  0  0  0
    4.5382   -1.8490    0.3955 C   0  0  0  0  0  0  0  0  0  0  0  0
    5.2153   -2.0005    1.2504 H   0  0  0  0  0  0  0  0  0  0  0  0
  3  6  1  0  0  0  0
  4  8  1  0  0  0  0
  5  4  1  0  0  0  0
  6 19  2  0  0  0  0
  6  7  1  0  0  0  0
  8  3  1  0  0  0  0
  8  1  1  6  0  0  0
  9 12  1  0  0  0  0
  9  3  2  0  0  0  0
 10  9  1  0  0  0  0
 11  2  1  0  0  0  0
 11  4  2  0  0  0  0
 12 21  2  0  0  0  0
 13 12  1  0  0  0  0
 14 17  1  0  0  0  0
 14 11  1  0  0  0  0
 14 15  1  0  0  0  0
 16 14  1  0  0  0  0
 18  2  1  0  0  0  0
 18 25  1  0  0  0  0
 19 20  1  0  0  0  0
 21 22  1  0  0  0  0
 21 19  1  0  0  0  0
 23 18  2  0  0  0  0
 24 23  1  0  0  0  0
 25 26  1  0  0  0  0
 27 23  1  0  0  0  0
 27 29  2  0  0  0  0
 28 27  1  0  0  0  0
 29 31  1  0  0  0  0
 30 29  1  0  0  0  0
 31 25  2  0  0  0  0
 31 32  1  0  0  0  0
M  END
