2,3
 OpenBabel05122313063D

 36 37  0  0  1  0  0  0  0  0999 V2000
    2.0245   -2.1690    1.5489 O   0  0  0  0  0  0  0  0  0  0  0  0
   -1.7051    0.4305   -0.3836 O   0  5  0  0  0  0  0  0  0  0  0  0
    0.8256   -0.9855   -0.6175 N   0  0  0  0  0  2  0  0  0  0  0  0
   -4.3558   -2.0345   -0.2640 C   0  0  0  0  0  0  0  0  0  0  0  0
   -3.7885   -2.9535   -0.0568 H   0  0  0  0  0  0  0  0  0  0  0  0
    2.2302   -1.2017   -0.5996 C   0  0  0  0  0  0  0  0  0  0  0  0
    3.0196   -0.7741   -1.6808 C   0  0  0  0  0  0  0  0  0  0  0  0
    2.4923   -0.3091   -2.5284 H   0  0  0  0  0  0  0  0  0  0  0  0
    4.4164   -0.9033   -1.6445 C   0  0  0  0  0  0  0  0  0  0  0  0
    5.0211   -0.5643   -2.4986 H   0  0  0  0  0  0  0  0  0  0  0  0
    5.0334   -1.4612   -0.5152 C   0  0  0  0  0  0  0  0  0  0  0  0
    6.1283   -1.5639   -0.4728 H   0  0  0  0  0  0  0  0  0  0  0  0
    4.2612   -1.8991    0.5745 C   0  0  0  0  0  0  0  0  0  0  0  0
    4.7598   -2.3357    1.4504 H   0  0  0  0  0  0  0  0  0  0  0  0
    2.8589   -1.7770    0.5387 C   0  0  0  0  0  0  0  0  0  0  0  0
    2.5943   -2.7350    2.7138 C   0  0  0  0  0  0  0  0  0  0  0  0
    3.1517   -3.6719    2.4901 H   0  0  0  0  0  0  0  0  0  0  0  0
    1.7508   -2.9682    3.3898 H   0  0  0  0  0  0  0  0  0  0  0  0
    3.2828   -2.0249    3.2253 H   0  0  0  0  0  0  0  0  0  0  0  0
    0.0010   -2.0047   -0.8496 C   0  0  2  0  0  3  0  0  0  0  0  0
   -1.4139   -1.9008   -0.8554 C   0  0  0  0  0  0  0  0  0  0  0  0
   -1.9607   -2.8218   -1.0876 H   0  0  0  0  0  0  0  0  0  0  0  0
   -2.1746   -0.7525   -0.5951 C   0  0  0  0  0  0  0  0  0  0  0  0
   -3.6679   -0.8335   -0.5431 C   0  0  0  0  0  0  0  0  0  0  0  0
   -5.7562   -2.0600   -0.2156 C   0  0  0  0  0  0  0  0  0  0  0  0
   -6.2771   -3.0028    0.0110 H   0  0  0  0  0  0  0  0  0  0  0  0
   -6.4930   -0.8867   -0.4460 C   0  0  0  0  0  0  0  0  0  0  0  0
   -7.5930   -0.9088   -0.4101 H   0  0  0  0  0  0  0  0  0  0  0  0
   -5.8183    0.3148   -0.7188 C   0  0  0  0  0  0  0  0  0  0  0  0
   -6.3897    1.2374   -0.9034 H   0  0  0  0  0  0  0  0  0  0  0  0
   -4.4187    0.3428   -0.7619 C   0  0  0  0  0  0  0  0  0  0  0  0
   -3.8750    1.2734   -0.9777 H   0  0  0  0  0  0  0  0  0  0  0  0
    0.5914   -3.3742   -1.1050 C   0  0  0  0  0  0  0  0  0  0  0  0
    1.4066   -3.3225   -1.8531 H   0  0  0  0  0  0  0  0  0  0  0  0
   -0.1822   -4.0762   -1.4640 H   0  0  0  0  0  0  0  0  0  0  0  0
    1.0291   -3.7811   -0.1706 H   0  0  0  0  0  0  0  0  0  0  0  0
  1 16  1  0  0  0  0
  3  6  1  0  0  0  0
  4 25  1  0  0  0  0
  4  5  1  0  0  0  0
  6 15  1  0  0  0  0
  7  9  1  0  0  0  0
  7  6  2  0  0  0  0
  8  7  1  0  0  0  0
  9 11  2  0  0  0  0
 10  9  1  0  0  0  0
 11 12  1  0  0  0  0
 11 13  1  0  0  0  0
 13 14  1  0  0  0  0
 15 13  2  0  0  0  0
 15  1  1  0  0  0  0
 16 19  1  0  0  0  0
 16 18  1  0  0  0  0
 17 16  1  0  0  0  0
 20 21  1  1  0  0  0
 20  3  1  0  0  0  0
 21 23  2  0  0  0  0
 22 21  1  0  0  0  0
 23 24  1  0  0  0  0
 23  2  1  0  0  0  0
 24  4  2  0  0  0  0
 25 26  1  0  0  0  0
 27 28  1  0  0  0  0
 27 25  2  0  0  0  0
 29 27  1  0  0  0  0
 30 29  1  0  0  0  0
 31 29  2  0  0  0  0
 31 24  1  0  0  0  0
 32 31  1  0  0  0  0
 33 20  1  0  0  0  0
 33 36  1  0  0  0  0
 34 33  1  0  0  0  0
 35 33  1  0  0  0  0
M  CHG  1   2  -1
M  END
