1,5
 OpenBabel05122313063D

 44 46  0  0  1  0  0  0  0  0999 V2000
   -2.5025   -0.5814   -0.3347 O   0  5  0  0  0  0  0  0  0  0  0  0
    7.2052    0.3586   -0.2621 O   0  0  0  0  0  0  0  0  0  0  0  0
    3.7827    1.3189    2.6637 O   0  0  0  0  0  0  0  0  0  0  0  0
   -1.8878   -1.7740    1.5222 N   0  0  0  0  0  0  0  0  0  0  0  0
   -0.6464   -1.6806    0.9545 N   0  0  0  0  0  2  0  0  0  0  0  0
    2.3387   -0.9122    1.7109 N   0  0  0  0  0  0  0  0  0  0  0  0
    5.5040    0.8226    1.2021 N   0  0  0  0  0  0  0  0  0  0  0  0
    5.4478   -1.1318   -0.1742 N   0  0  0  0  0  0  0  0  0  0  0  0
    3.6695   -2.6427   -0.0348 N   0  0  0  0  0  0  0  0  0  0  0  0
   -2.8013   -1.1477    0.8101 C   0  0  0  0  0  0  0  0  0  0  0  0
    0.3276   -2.2045    1.6718 C   0  0  1  0  0  3  0  0  0  0  0  0
    1.7430   -2.0094    1.2426 C   0  0  0  0  0  0  0  0  0  0  0  0
    3.5748   -0.6290    1.2857 C   0  0  0  0  0  0  0  0  0  0  0  0
    4.2487    0.5807    1.8044 C   0  0  0  0  0  0  0  0  0  0  0  0
    6.2558    2.0021    1.6231 C   0  0  0  0  0  0  0  0  0  0  0  0
    7.2338    1.7021    2.0464 H   0  0  0  0  0  0  0  0  0  0  0  0
    5.6460    2.5211    2.3818 H   0  0  0  0  0  0  0  0  0  0  0  0
    6.4489    2.6601    0.7548 H   0  0  0  0  0  0  0  0  0  0  0  0
    6.1250    0.0368    0.2146 C   0  0  0  0  0  0  0  0  0  0  0  0
    6.0698   -1.9954   -1.1767 C   0  0  0  0  0  0  0  0  0  0  0  0
    5.4008   -2.1037   -2.0516 H   0  0  0  0  0  0  0  0  0  0  0  0
    6.2464   -3.0032   -0.7550 H   0  0  0  0  0  0  0  0  0  0  0  0
    7.0218   -1.5221   -1.4697 H   0  0  0  0  0  0  0  0  0  0  0  0
    4.2189   -1.4791    0.3536 C   0  0  0  0  0  0  0  0  0  0  0  0
    2.4402   -2.9363    0.4049 C   0  0  0  0  0  0  0  0  0  0  0  0
    1.8107   -4.2225   -0.0268 C   0  0  0  0  0  0  0  0  0  0  0  0
    0.9818   -4.0160   -0.7416 H   0  0  0  0  0  0  0  0  0  0  0  0
    1.3560   -4.7592    0.8301 H   0  0  0  0  0  0  0  0  0  0  0  0
    2.5611   -4.8657   -0.5202 H   0  0  0  0  0  0  0  0  0  0  0  0
    0.0560   -2.8729    2.9855 C   0  0  0  0  0  0  0  0  0  0  0  0
   -0.2771   -2.1160    3.7285 H   0  0  0  0  0  0  0  0  0  0  0  0
    0.9669   -3.3698    3.3675 H   0  0  0  0  0  0  0  0  0  0  0  0
   -0.7731   -3.6016    2.8928 H   0  0  0  0  0  0  0  0  0  0  0  0
   -4.1875   -1.0471    1.3051 C   0  0  0  0  0  0  0  0  0  0  0  0
   -5.1978   -0.5373    0.4634 C   0  0  0  0  0  0  0  0  0  0  0  0
   -4.9406   -0.2594   -0.5687 H   0  0  0  0  0  0  0  0  0  0  0  0
   -6.5086   -0.4064    0.9405 C   0  0  0  0  0  0  0  0  0  0  0  0
   -7.2950   -0.0121    0.2794 H   0  0  0  0  0  0  0  0  0  0  0  0
   -6.8193   -0.7824    2.2575 C   0  0  0  0  0  0  0  0  0  0  0  0
   -7.8491   -0.6771    2.6316 H   0  0  0  0  0  0  0  0  0  0  0  0
   -5.8149   -1.2957    3.0977 C   0  0  0  0  0  0  0  0  0  0  0  0
   -6.0584   -1.5901    4.1298 H   0  0  0  0  0  0  0  0  0  0  0  0
   -4.5044   -1.4297    2.6265 C   0  0  0  0  0  0  0  0  0  0  0  0
   -3.7003   -1.8157    3.2683 H   0  0  0  0  0  0  0  0  0  0  0  0
  1 10  1  0  0  0  0
  2 19  2  0  0  0  0
  5  4  1  0  0  0  0
  7 15  1  0  0  0  0
  7 14  1  0  0  0  0
  8 19  1  0  0  0  0
  8 24  1  0  0  0  0
  9 24  1  0  0  0  0
  9 25  2  0  0  0  0
 10 34  1  0  0  0  0
 10  4  2  0  0  0  0
 11  5  1  1  0  0  0
 11 30  1  0  0  0  0
 12 11  1  0  0  0  0
 12  6  2  0  0  0  0
 13  6  1  0  0  0  0
 13 14  1  0  0  0  0
 14  3  2  0  0  0  0
 15 16  1  0  0  0  0
 15 17  1  0  0  0  0
 18 15  1  0  0  0  0
 19  7  1  0  0  0  0
 20 22  1  0  0  0  0
 20  8  1  0  0  0  0
 21 20  1  0  0  0  0
 23 20  1  0  0  0  0
 24 13  2  0  0  0  0
 25 12  1  0  0  0  0
 26 25  1  0  0  0  0
 26 28  1  0  0  0  0
 27 26  1  0  0  0  0
 29 26  1  0  0  0  0
 30 32  1  0  0  0  0
 30 31  1  0  0  0  0
 33 30  1  0  0  0  0
 34 43  1  0  0  0  0
 35 37  1  0  0  0  0
 35 34  2  0  0  0  0
 36 35  1  0  0  0  0
 37 39  2  0  0  0  0
 38 37  1  0  0  0  0
 39 40  1  0  0  0  0
 39 41  1  0  0  0  0
 41 42  1  0  0  0  0
 43 41  2  0  0  0  0
 43 44  1  0  0  0  0
M  CHG  1   1  -1
M  END
