5,7
 OpenBabel05122313063D

 11 11  0  0  0  0  0  0  0  0999 V2000
   -2.9194   -2.5000    1.0388 C   0  0  0  0  0  0  0  0  0  0  0  0
   -4.0741   -2.4740    0.2546 C   0  0  0  0  0  0  0  0  0  0  0  0
   -4.1532   -1.6654   -0.9009 C   0  0  0  0  0  0  0  0  0  0  0  0
   -3.0443   -0.8927   -1.2513 C   0  0  0  0  0  3  0  0  0  0  0  0
   -1.9400   -0.9204   -0.4919 N   0  0  0  0  0  2  0  0  0  0  0  0
   -1.8362   -1.6825    0.6392 C   0  0  0  0  0  0  0  0  0  0  0  0
   -0.6797   -1.5132    1.2233 O   0  5  0  0  0  0  0  0  0  0  0  0
   -2.8284   -3.1188    1.9415 H   0  0  0  0  0  0  0  0  0  0  0  0
   -4.9377   -3.0930    0.5437 H   0  0  0  0  0  0  0  0  0  0  0  0
   -5.0615   -1.6349   -1.5168 H   0  0  0  0  0  0  0  0  0  0  0  0
   -3.0291   -0.2314   -2.1306 H   0  0  0  0  0  0  0  0  0  0  0  0
  1  8  1  0  0  0  0
  2  9  1  0  0  0  0
  2  1  1  0  0  0  0
  3  2  2  0  0  0  0
  4  3  1  0  0  0  0
  4  5  1  0  0  0  0
  5  6  1  0  0  0  0
  6  1  2  0  0  0  0
  6  7  1  0  0  0  0
 10  3  1  0  0  0  0
 11  4  1  0  0  0  0
M  CHG  1   7  -1
M  END
