3,5
 OpenBabel05122313063D

 36 36  0  0  0  0  0  0  0  0999 V2000
    0.7439   -1.4568   -0.0286 P   0  0  0  0  0  4  0  0  0  0  0  0
    1.2968   -2.3886    1.2052 O   0  0  0  0  0  0  0  0  0  0  0  0
   -0.6957   -1.8713   -0.4049 O   0  0  0  0  0  1  0  0  0  0  0  0
    1.8898   -1.7397   -1.1481 O   0  0  0  0  0  0  0  0  0  0  0  0
    0.6316    0.1389    0.1850 N   0  0  0  0  0  2  0  0  0  0  0  0
    1.6551    1.1162    0.2701 C   0  0  0  0  0  0  0  0  0  0  0  0
    2.2780    1.3990    1.5147 C   0  0  0  0  0  0  0  0  0  0  0  0
    1.9977    1.8635   -0.8894 C   0  0  0  0  0  0  0  0  0  0  0  0
    2.9467    2.8959   -0.7780 C   0  0  0  0  0  0  0  0  0  0  0  0
    3.2095    3.4755   -1.6773 H   0  0  0  0  0  0  0  0  0  0  0  0
    3.2246    2.4385    1.5829 C   0  0  0  0  0  0  0  0  0  0  0  0
    3.7020    2.6596    2.5508 H   0  0  0  0  0  0  0  0  0  0  0  0
    3.5574    3.1899    0.4488 C   0  0  0  0  0  0  0  0  0  0  0  0
    4.2955    4.0032    0.5196 H   0  0  0  0  0  0  0  0  0  0  0  0
    1.9215    0.6008    2.7386 C   0  0  0  0  0  0  0  0  0  0  0  0
    0.8250    0.5991    2.9115 H   0  0  0  0  0  0  0  0  0  0  0  0
    2.4200    1.0038    3.6409 H   0  0  0  0  0  0  0  0  0  0  0  0
    2.2115   -0.4632    2.6231 H   0  0  0  0  0  0  0  0  0  0  0  0
    2.3221   -3.0847   -1.4492 C   0  0  0  0  0  0  0  0  0  0  0  0
    1.4340   -3.7114   -1.6858 H   0  0  0  0  0  0  0  0  0  0  0  0
    2.8113   -3.5127   -0.5486 H   0  0  0  0  0  0  0  0  0  0  0  0
    0.3620   -3.1057    2.0489 C   0  0  0  0  0  0  0  0  0  0  0  0
    0.9548   -3.9377    2.4804 H   0  0  0  0  0  0  0  0  0  0  0  0
   -0.4345   -3.5391    1.4093 H   0  0  0  0  0  0  0  0  0  0  0  0
    3.2748   -3.0193   -2.6254 C   0  0  0  0  0  0  0  0  0  0  0  0
    2.7707   -2.6046   -3.5207 H   0  0  0  0  0  0  0  0  0  0  0  0
    3.6471   -4.0336   -2.8720 H   0  0  0  0  0  0  0  0  0  0  0  0
    4.1441   -2.3751   -2.3873 H   0  0  0  0  0  0  0  0  0  0  0  0
   -0.2413   -2.2368    3.1385 C   0  0  0  0  0  0  0  0  0  0  0  0
   -0.8069   -1.3883    2.7022 H   0  0  0  0  0  0  0  0  0  0  0  0
    0.5369   -1.8348    3.8156 H   0  0  0  0  0  0  0  0  0  0  0  0
   -0.9473   -2.8410    3.7441 H   0  0  0  0  0  0  0  0  0  0  0  0
    1.3538    1.5474   -2.2119 C   0  0  0  0  0  0  0  0  0  0  0  0
    1.5397    0.4916   -2.4976 H   0  0  0  0  0  0  0  0  0  0  0  0
    1.7421    2.2025   -3.0150 H   0  0  0  0  0  0  0  0  0  0  0  0
    0.2537    1.6813   -2.1576 H   0  0  0  0  0  0  0  0  0  0  0  0
  1  5  1  0  0  0  0
  1  2  1  0  0  0  0
  2 22  1  0  0  0  0
  3  1  1  0  0  0  0
  4  1  1  0  0  0  0
  5  6  1  0  0  0  0
  6  7  1  0  0  0  0
  7 11  2  0  0  0  0
  7 15  1  0  0  0  0
  8  9  1  0  0  0  0
  8  6  2  0  0  0  0
  9 13  2  0  0  0  0
 10  9  1  0  0  0  0
 11 12  1  0  0  0  0
 13 14  1  0  0  0  0
 13 11  1  0  0  0  0
 15 16  1  0  0  0  0
 15 17  1  0  0  0  0
 18 15  1  0  0  0  0
 19  4  1  0  0  0  0
 19 21  1  0  0  0  0
 20 19  1  0  0  0  0
 22 23  1  0  0  0  0
 22 29  1  0  0  0  0
 24 22  1  0  0  0  0
 25 28  1  0  0  0  0
 25 19  1  0  0  0  0
 26 25  1  0  0  0  0
 27 25  1  0  0  0  0
 29 32  1  0  0  0  0
 29 31  1  0  0  0  0
 30 29  1  0  0  0  0
 33 36  1  0  0  0  0
 33  8  1  0  0  0  0
 34 33  1  0  0  0  0
 35 33  1  0  0  0  0
M  END
