1,4
 OpenBabel05122313063D

 25 25  0  0  0  0  0  0  0  0999 V2000
    0.1554    2.0289    0.1619 O   0  0  0  0  0  1  0  0  0  0  0  0
   -1.0570    2.6854    0.1485 C   0  0  0  0  0  0  0  0  0  0  0  0
   -2.0582    1.8755   -0.6293 O   0  0  0  0  0  0  0  0  0  0  0  0
   -1.9333    0.5540   -0.2827 N   0  0  0  0  0  2  0  0  0  0  0  0
   -3.0224   -0.1405   -0.2224 C   0  0  0  0  0  3  0  0  0  0  0  0
   -3.0853   -1.6070    0.0933 C   0  0  0  0  0  0  0  0  0  0  0  0
   -4.5490   -1.9739   -0.2173 C   0  0  0  0  0  0  0  0  0  0  0  0
   -5.3303   -0.6792    0.0754 C   0  0  0  0  0  0  0  0  0  0  0  0
   -4.3967    0.4357   -0.4342 C   0  0  0  0  0  0  0  0  0  0  0  0
   -4.5049    1.4229    0.0570 H   0  0  0  0  0  0  0  0  0  0  0  0
   -4.5314    0.6184   -1.5246 H   0  0  0  0  0  0  0  0  0  0  0  0
   -6.3317   -0.6501   -0.3960 H   0  0  0  0  0  0  0  0  0  0  0  0
   -5.4761   -0.5668    1.1708 H   0  0  0  0  0  0  0  0  0  0  0  0
   -4.9056   -2.8424    0.3693 H   0  0  0  0  0  0  0  0  0  0  0  0
   -4.6479   -2.2393   -1.2917 H   0  0  0  0  0  0  0  0  0  0  0  0
   -2.3046   -2.1880   -0.4342 H   0  0  0  0  0  0  0  0  0  0  0  0
   -2.8431   -1.7155    1.1753 H   0  0  0  0  0  0  0  0  0  0  0  0
   -0.9246    3.9646   -0.6730 C   0  0  0  0  0  0  0  0  0  0  0  0
   -0.5495    3.7029   -1.6796 H   0  0  0  0  0  0  0  0  0  0  0  0
   -0.1950    4.6325   -0.1769 H   0  0  0  0  0  0  0  0  0  0  0  0
   -1.8937    4.4940   -0.7554 H   0  0  0  0  0  0  0  0  0  0  0  0
   -1.6483    2.9043    1.5440 C   0  0  0  0  0  0  0  0  0  0  0  0
   -2.6268    3.4221    1.4916 H   0  0  0  0  0  0  0  0  0  0  0  0
   -1.7546    1.9341    2.0664 H   0  0  0  0  0  0  0  0  0  0  0  0
   -0.9465    3.5237    2.1357 H   0  0  0  0  0  0  0  0  0  0  0  0
  2  1  1  0  0  0  0
  2 22  1  0  0  0  0
  3  4  1  0  0  0  0
  3  2  1  0  0  0  0
  4  5  1  0  0  0  0
  5  6  1  0  0  0  0
  6 17  1  0  0  0  0
  7  8  1  0  0  0  0
  7  6  1  0  0  0  0
  7 14  1  0  0  0  0
  8 13  1  0  0  0  0
  9  5  1  0  0  0  0
  9 10  1  0  0  0  0
  9  8  1  0  0  0  0
 11  9  1  0  0  0  0
 12  8  1  0  0  0  0
 15  7  1  0  0  0  0
 16  6  1  0  0  0  0
 18 20  1  0  0  0  0
 18  2  1  0  0  0  0
 19 18  1  0  0  0  0
 21 18  1  0  0  0  0
 22 24  1  0  0  0  0
 22 25  1  0  0  0  0
 23 22  1  0  0  0  0
M  END
