1,2
 OpenBabel05122313063D

 50 51  0  0  0  0  0  0  0  0999 V2000
    1.9574   -0.4353    0.5094 O   0  5  0  0  0  0  0  0  0  0  0  0
   -0.3719   -0.0027   -0.3795 N   0  0  0  0  0  2  0  0  0  0  0  0
    2.2177    3.1971    0.1148 C   0  0  0  0  0  0  0  0  0  0  0  0
    2.9193    4.0290    0.2591 H   0  0  0  0  0  0  0  0  0  0  0  0
    0.9246    3.5034   -0.3926 C   0  0  0  0  0  0  0  0  0  0  0  0
   -1.7212    0.0939   -0.7999 C   0  0  0  0  0  0  0  0  0  0  0  0
    0.0182    2.4545   -0.5781 C   0  0  0  0  0  0  0  0  0  0  0  0
   -0.9937    2.6274   -0.9658 H   0  0  0  0  0  0  0  0  0  0  0  0
    1.7146    0.8484    0.2456 C   0  0  0  0  0  0  0  0  0  0  0  0
   -2.7261    0.4090    0.1325 C   0  0  0  0  0  0  0  0  0  0  0  0
   -2.4388    0.6494    1.1660 H   0  0  0  0  0  0  0  0  0  0  0  0
    0.4120    1.1371   -0.2563 C   0  0  0  0  0  0  0  0  0  0  0  0
   -2.0810   -0.2027   -2.1311 C   0  0  0  0  0  0  0  0  0  0  0  0
   -1.2827   -0.4398   -2.8496 H   0  0  0  0  0  0  0  0  0  0  0  0
    2.6528    1.9050    0.4440 C   0  0  0  0  0  0  0  0  0  0  0  0
   -5.2513   -0.4902    1.6070 F   0  0  0  0  0  0  0  0  0  0  0  0
   -6.3514    0.8444    0.2740 F   0  0  0  0  0  0  0  0  0  0  0  0
    0.5698    4.9668   -0.7126 C   0  0  0  0  0  0  0  0  0  0  0  0
   -4.0762    0.3830   -0.2526 C   0  0  0  0  0  0  0  0  0  0  0  0
    4.0584    1.6184    0.9957 C   0  0  0  0  0  0  0  0  0  0  0  0
   -4.8216    1.6466    1.6131 F   0  0  0  0  0  0  0  0  0  0  0  0
   -3.4295   -0.2045   -2.5132 C   0  0  0  0  0  0  0  0  0  0  0  0
   -3.7024   -0.4350   -3.5540 H   0  0  0  0  0  0  0  0  0  0  0  0
    3.9362    0.9579    2.3892 C   0  0  0  0  0  0  0  0  0  0  0  0
    3.4183    1.6349    3.0989 H   0  0  0  0  0  0  0  0  0  0  0  0
    4.9441    0.7370    2.7993 H   0  0  0  0  0  0  0  0  0  0  0  0
    3.3653    0.0123    2.3293 H   0  0  0  0  0  0  0  0  0  0  0  0
    4.8012    0.6655    0.0306 C   0  0  0  0  0  0  0  0  0  0  0  0
    4.9124    1.1290   -0.9709 H   0  0  0  0  0  0  0  0  0  0  0  0
    4.2493   -0.2858   -0.0852 H   0  0  0  0  0  0  0  0  0  0  0  0
    5.8160    0.4371    0.4187 H   0  0  0  0  0  0  0  0  0  0  0  0
   -4.4357    0.0791   -1.5766 C   0  0  0  0  0  0  0  0  0  0  0  0
   -5.4955    0.0661   -1.8657 H   0  0  0  0  0  0  0  0  0  0  0  0
    4.8950    2.9009    1.1432 C   0  0  0  0  0  0  0  0  0  0  0  0
    5.0459    3.4126    0.1709 H   0  0  0  0  0  0  0  0  0  0  0  0
    5.8966    2.6454    1.5444 H   0  0  0  0  0  0  0  0  0  0  0  0
    4.4282    3.6219    1.8446 H   0  0  0  0  0  0  0  0  0  0  0  0
    0.6890    5.8153    0.5740 C   0  0  0  0  0  0  0  0  0  0  0  0
   -0.0066    5.4466    1.3548 H   0  0  0  0  0  0  0  0  0  0  0  0
    0.4436    6.8777    0.3652 H   0  0  0  0  0  0  0  0  0  0  0  0
    1.7138    5.7825    0.9942 H   0  0  0  0  0  0  0  0  0  0  0  0
   -0.8636    5.1078   -1.2529 C   0  0  0  0  0  0  0  0  0  0  0  0
   -1.6163    4.7552   -0.5192 H   0  0  0  0  0  0  0  0  0  0  0  0
   -1.0063    4.5379   -2.1931 H   0  0  0  0  0  0  0  0  0  0  0  0
   -1.0823    6.1728   -1.4707 H   0  0  0  0  0  0  0  0  0  0  0  0
   -5.1305    0.6064    0.8034 C   0  0  0  0  0  0  0  0  0  0  0  0
    1.5467    5.5104   -1.7800 C   0  0  0  0  0  0  0  0  0  0  0  0
    1.4769    4.9192   -2.7155 H   0  0  0  0  0  0  0  0  0  0  0  0
    2.5985    5.4688   -1.4338 H   0  0  0  0  0  0  0  0  0  0  0  0
    1.3123    6.5685   -2.0208 H   0  0  0  0  0  0  0  0  0  0  0  0
  2 12  1  0  0  0  0
  3  4  1  0  0  0  0
  3 15  1  0  0  0  0
  5  3  2  0  0  0  0
  6  2  1  0  0  0  0
  6 10  1  0  0  0  0
  7  5  1  0  0  0  0
  7 12  2  0  0  0  0
  8  7  1  0  0  0  0
  9 15  2  0  0  0  0
  9  1  1  0  0  0  0
 10 11  1  0  0  0  0
 12  9  1  0  0  0  0
 13  6  2  0  0  0  0
 14 13  1  0  0  0  0
 15 20  1  0  0  0  0
 17 46  1  0  0  0  0
 18  5  1  0  0  0  0
 18 38  1  0  0  0  0
 19 10  2  0  0  0  0
 19 46  1  0  0  0  0
 20 34  1  0  0  0  0
 20 24  1  0  0  0  0
 22 13  1  0  0  0  0
 22 32  2  0  0  0  0
 23 22  1  0  0  0  0
 24 26  1  0  0  0  0
 24 25  1  0  0  0  0
 27 24  1  0  0  0  0
 28 31  1  0  0  0  0
 28 20  1  0  0  0  0
 29 28  1  0  0  0  0
 30 28  1  0  0  0  0
 32 19  1  0  0  0  0
 33 32  1  0  0  0  0
 34 36  1  0  0  0  0
 34 37  1  0  0  0  0
 35 34  1  0  0  0  0
 38 41  1  0  0  0  0
 38 39  1  0  0  0  0
 40 38  1  0  0  0  0
 42 18  1  0  0  0  0
 42 43  1  0  0  0  0
 44 42  1  0  0  0  0
 45 42  1  0  0  0  0
 46 16  1  0  0  0  0
 46 21  1  0  0  0  0
 47 49  1  0  0  0  0
 47 18  1  0  0  0  0
 48 47  1  0  0  0  0
 50 47  1  0  0  0  0
M  CHG  1   1  -1
M  END
