2,4
 OpenBabel05122313063D

 17 17  0  0  0  0  0  0  0  0999 V2000
    0.2189    1.9617    2.1490 O   0  0  0  0  0  1  0  0  0  0  0  0
    1.6124    0.1220   -0.9252 O   0  5  0  0  0  0  0  0  0  0  0  0
    5.6782    2.6930   -0.8916 O   0  0  0  0  0  0  0  0  0  0  0  0
    0.7500    1.3984    1.1939 N   0  0  0  0  0  2  0  0  0  0  0  0
    1.9923    1.7608    0.7231 C   0  0  0  0  0  0  0  0  0  0  0  0
    2.4029    1.0189   -0.4471 C   0  0  0  0  0  0  0  0  0  0  0  0
    3.6729    1.3290   -1.0188 C   0  0  0  0  0  0  0  0  0  0  0  0
    4.4618    2.3216   -0.4341 C   0  0  0  0  0  0  0  0  0  0  0  0
    4.0305    3.0465    0.7339 C   0  0  0  0  0  0  0  0  0  0  0  0
    2.8088    2.7685    1.3046 C   0  0  0  0  0  0  0  0  0  0  0  0
    6.2022    2.0385   -2.0369 C   0  0  0  0  0  0  0  0  0  0  0  0
    3.9814    0.7664   -1.9078 H   0  0  0  0  0  0  0  0  0  0  0  0
    4.7068    3.8114    1.1394 H   0  0  0  0  0  0  0  0  0  0  0  0
    2.4386    3.2944    2.1955 H   0  0  0  0  0  0  0  0  0  0  0  0
    7.1913    2.4923   -2.2294 H   0  0  0  0  0  0  0  0  0  0  0  0
    5.5495    2.1872   -2.9247 H   0  0  0  0  0  0  0  0  0  0  0  0
    6.3254    0.9476   -1.8610 H   0  0  0  0  0  0  0  0  0  0  0  0
  2  6  1  0  0  0  0
  3  8  1  0  0  0  0
  4  1  1  0  0  0  0
  5  4  1  0  0  0  0
  5 10  1  0  0  0  0
  6  5  2  0  0  0  0
  7  6  1  0  0  0  0
  7  8  2  0  0  0  0
  8  9  1  0  0  0  0
  9 13  1  0  0  0  0
  9 10  2  0  0  0  0
 10 14  1  0  0  0  0
 11 17  1  0  0  0  0
 11  3  1  0  0  0  0
 12  7  1  0  0  0  0
 15 11  1  0  0  0  0
 16 11  1  0  0  0  0
M  CHG  1   2  -1
M  END
