3,4,26
 OpenBabel05122313063D

 39 41  0  0  1  0  0  0  0  0999 V2000
   -3.5865    1.8766    0.0123 O   0  0  0  0  0  0  0  0  0  0  0  0
    3.5865    1.8767    0.0124 O   0  0  0  0  0  0  0  0  0  0  0  0
   -1.9410    0.3105    0.0856 N   0  0  0  0  0  2  0  0  0  0  0  0
    1.9410    0.3105    0.0854 N   0  0  0  0  0  2  0  0  0  0  0  0
   -3.3321   -1.2420   -1.2517 C   0  0  0  0  0  0  0  0  0  0  0  0
   -2.4910   -1.9506   -1.3779 H   0  0  0  0  0  0  0  0  0  0  0  0
   -3.3232   -0.5272   -2.0992 H   0  0  0  0  0  0  0  0  0  0  0  0
   -4.2851   -1.8092   -1.2775 H   0  0  0  0  0  0  0  0  0  0  0  0
   -3.2565   -1.4504    1.2821 C   0  0  0  0  0  0  0  0  0  0  0  0
   -2.4708   -2.2253    1.1989 H   0  0  0  0  0  0  0  0  0  0  0  0
   -4.2470   -1.9489    1.3192 H   0  0  0  0  0  0  0  0  0  0  0  0
   -3.1051   -0.8949    2.2290 H   0  0  0  0  0  0  0  0  0  0  0  0
   -3.1980   -0.4989    0.0844 C   0  0  0  0  0  0  0  0  0  0  0  0
   -4.2828    0.6184    0.2176 C   0  0  0  0  0  0  0  0  0  0  0  0
   -5.0844    0.5417   -0.5422 H   0  0  0  0  0  0  0  0  0  0  0  0
   -4.7380    0.6493    1.2294 H   0  0  0  0  0  0  0  0  0  0  0  0
   -2.2838    1.5838    0.0210 C   0  0  1  0  0  3  0  0  0  0  0  0
   -1.2151    2.5585   -0.0358 C   0  0  0  0  0  0  0  0  0  0  0  0
   -1.2284    3.9647   -0.1021 C   0  0  0  0  0  0  0  0  0  0  0  0
   -2.1814    4.5146   -0.1267 H   0  0  0  0  0  0  0  0  0  0  0  0
   -0.0000    4.6545   -0.1361 C   0  0  0  0  0  0  0  0  0  0  0  0
   -0.0000    5.7531   -0.1888 H   0  0  0  0  0  0  0  0  0  0  0  0
    1.2284    3.9647   -0.1021 C   0  0  0  0  0  3  0  0  0  0  0  0
    2.1814    4.5146   -0.1267 H   0  0  0  0  0  0  0  0  0  0  0  0
    1.2151    2.5585   -0.0358 C   0  0  0  0  0  0  0  0  0  0  0  0
   -0.0000    1.8478   -0.0024 C   0  0  0  0  0  3  0  0  0  0  0  0
    2.2838    1.5839    0.0209 C   0  0  0  0  0  0  0  0  0  0  0  0
    4.2829    0.6184    0.2172 C   0  0  0  0  0  0  0  0  0  0  0  0
    4.7386    0.6492    1.2288 H   0  0  0  0  0  0  0  0  0  0  0  0
    5.0841    0.5418   -0.5430 H   0  0  0  0  0  0  0  0  0  0  0  0
    3.1980   -0.4989    0.0844 C   0  0  0  0  0  0  0  0  0  0  0  0
    3.3321   -1.2425   -1.2514 C   0  0  0  0  0  0  0  0  0  0  0  0
    2.4911   -1.9512   -1.3774 H   0  0  0  0  0  0  0  0  0  0  0  0
    4.2852   -1.8095   -1.2771 H   0  0  0  0  0  0  0  0  0  0  0  0
    3.3231   -0.5280   -2.0991 H   0  0  0  0  0  0  0  0  0  0  0  0
    3.2564   -1.4500    1.2824 C   0  0  0  0  0  0  0  0  0  0  0  0
    3.1052   -0.8941    2.2292 H   0  0  0  0  0  0  0  0  0  0  0  0
    4.2468   -1.9487    1.3196 H   0  0  0  0  0  0  0  0  0  0  0  0
    2.4705   -2.2247    1.1995 H   0  0  0  0  0  0  0  0  0  0  0  0
  1 17  1  0  0  0  0
  1 14  1  0  0  0  0
  2 27  1  0  0  0  0
  2 28  1  0  0  0  0
  5 13  1  0  0  0  0
  6  5  1  0  0  0  0
  7  5  1  0  0  0  0
  8  5  1  0  0  0  0
  9 11  1  0  0  0  0
  9 12  1  0  0  0  0
 10  9  1  0  0  0  0
 13  3  1  0  0  0  0
 13 14  1  0  0  0  0
 13  9  1  0  0  0  0
 14 16  1  0  0  0  0
 15 14  1  0  0  0  0
 17 18  1  6  0  0  0
 17  3  1  0  0  0  0
 18 26  2  0  0  0  0
 19 18  1  0  0  0  0
 20 19  1  0  0  0  0
 21 19  2  0  0  0  0
 21 23  1  0  0  0  0
 22 21  1  0  0  0  0
 23 25  1  0  0  0  0
 24 23  1  0  0  0  0
 25 26  1  0  0  0  0
 25 27  2  0  0  0  0
 27  4  1  0  0  0  0
 28 29  1  0  0  0  0
 30 28  1  0  0  0  0
 31  4  1  0  0  0  0
 31 28  1  0  0  0  0
 31 36  1  0  0  0  0
 32 31  1  0  0  0  0
 33 32  1  0  0  0  0
 34 32  1  0  0  0  0
 35 32  1  0  0  0  0
 36 38  1  0  0  0  0
 36 37  1  0  0  0  0
 39 36  1  0  0  0  0
M  END
