1,2,21
 OpenBabel05122313063D

 47 50  0  0  0  0  0  0  0  0999 V2000
   -0.2934    2.2143   -0.1909 N   0  0  0  0  0  2  0  0  0  0  0  0
    1.2422    0.0762   -0.1187 N   0  0  0  0  0  2  0  0  0  0  0  0
    9.7505   -0.1081    0.1519 N   0  0  0  0  0  0  0  0  0  0  0  0
   -1.1304    3.2653   -0.3030 C   0  0  0  0  0  0  0  0  0  0  0  0
   -2.2017    3.0315   -0.3207 H   0  0  0  0  0  0  0  0  0  0  0  0
   -0.6829    4.5888   -0.3891 C   0  0  0  0  0  0  0  0  0  0  0  0
   -1.4172    5.4014   -0.4769 H   0  0  0  0  0  0  0  0  0  0  0  0
    0.6948    4.8380   -0.3595 C   0  0  0  0  0  0  0  0  0  0  0  0
    1.0862    5.8640   -0.4210 H   0  0  0  0  0  0  0  0  0  0  0  0
    1.5710    3.7516   -0.2594 C   0  0  0  0  0  0  0  0  0  0  0  0
    2.6567    3.9137   -0.2482 H   0  0  0  0  0  0  0  0  0  0  0  0
    1.0602    2.4450   -0.1828 C   0  0  0  0  0  0  0  0  0  0  0  0
    1.9254    1.2465   -0.1145 C   0  0  0  0  0  0  0  0  0  0  0  0
    3.3211    1.2454   -0.0727 C   0  0  0  0  0  0  0  0  0  0  0  0
    3.8689    2.1948   -0.1018 H   0  0  0  0  0  0  0  0  0  0  0  0
    4.0360    0.0157   -0.0331 C   0  0  0  0  0  0  0  0  0  0  0  0
    3.2668   -1.1762   -0.0397 C   0  0  0  0  0  0  0  0  0  0  0  0
    3.7658   -2.1509    0.0249 H   0  0  0  0  0  0  0  0  0  0  0  0
    1.8680   -1.1342   -0.0826 C   0  0  0  0  0  0  0  0  0  0  0  0
    0.9259   -2.2618   -0.0874 C   0  0  0  0  0  0  0  0  0  0  0  0
   -0.4763   -1.9328   -0.0925 C   0  0  0  0  0  2  0  0  0  0  0  0
   -1.3881   -3.0034   -0.1285 C   0  0  0  0  0  3  0  0  0  0  0  0
   -2.4701   -2.8149   -0.1465 H   0  0  0  0  0  0  0  0  0  0  0  0
   -0.9524   -4.3402   -0.1473 C   0  0  0  0  0  0  0  0  0  0  0  0
   -1.6980   -5.1495   -0.1748 H   0  0  0  0  0  0  0  0  0  0  0  0
    0.4165   -4.6464   -0.1321 C   0  0  0  0  0  0  0  0  0  0  0  0
    0.7548   -5.6927   -0.1463 H   0  0  0  0  0  0  0  0  0  0  0  0
    1.3510   -3.6049   -0.1043 C   0  0  0  0  0  0  0  0  0  0  0  0
    2.4259   -3.8410   -0.1023 H   0  0  0  0  0  0  0  0  0  0  0  0
    5.5008   -0.0132    0.0117 C   0  0  0  0  0  0  0  0  0  0  0  0
    6.2359   -1.1535   -0.4035 C   0  0  0  0  0  0  0  0  0  0  0  0
    5.7058   -2.0299   -0.8044 H   0  0  0  0  0  0  0  0  0  0  0  0
    7.6246   -1.1923   -0.3683 C   0  0  0  0  0  0  0  0  0  0  0  0
    8.1344   -2.0956   -0.7250 H   0  0  0  0  0  0  0  0  0  0  0  0
    8.3810   -0.0769    0.1061 C   0  0  0  0  0  0  0  0  0  0  0  0
    7.6457    1.0722    0.5303 C   0  0  0  0  0  0  0  0  0  0  0  0
    8.1708    1.9522    0.9212 H   0  0  0  0  0  0  0  0  0  0  0  0
    6.2570    1.0944    0.4743 C   0  0  0  0  0  0  0  0  0  0  0  0
    5.7422    1.9939    0.8436 H   0  0  0  0  0  0  0  0  0  0  0  0
   10.4692   -1.3008   -0.2663 C   0  0  0  0  0  0  0  0  0  0  0  0
   11.5534   -1.1374   -0.1379 H   0  0  0  0  0  0  0  0  0  0  0  0
   10.2847   -1.5426   -1.3360 H   0  0  0  0  0  0  0  0  0  0  0  0
   10.1836   -2.1884    0.3393 H   0  0  0  0  0  0  0  0  0  0  0  0
   10.4929    1.0499    0.6219 C   0  0  0  0  0  0  0  0  0  0  0  0
   11.5747    0.8374    0.5662 H   0  0  0  0  0  0  0  0  0  0  0  0
   10.2480    1.2993    1.6778 H   0  0  0  0  0  0  0  0  0  0  0  0
   10.2897    1.9501    0.0018 H   0  0  0  0  0  0  0  0  0  0  0  0
  1 12  1  0  0  0  0
  2 13  1  0  0  0  0
  2 19  1  0  0  0  0
  3 44  1  0  0  0  0
  4  1  1  0  0  0  0
  5  4  1  0  0  0  0
  6  8  1  0  0  0  0
  6  4  2  0  0  0  0
  7  6  1  0  0  0  0
  8 10  2  0  0  0  0
  9  8  1  0  0  0  0
 10 11  1  0  0  0  0
 10 12  1  0  0  0  0
 12 13  2  0  0  0  0
 13 14  1  0  0  0  0
 14 16  2  0  0  0  0
 15 14  1  0  0  0  0
 16 30  1  0  0  0  0
 17 16  1  0  0  0  0
 17 18  1  0  0  0  0
 19 17  2  0  0  0  0
 20 19  1  0  0  0  0
 21 20  1  0  0  0  0
 22 21  1  0  0  0  0
 23 22  1  0  0  0  0
 24 26  2  0  0  0  0
 24 22  1  0  0  0  0
 25 24  1  0  0  0  0
 26 28  1  0  0  0  0
 27 26  1  0  0  0  0
 28 29  1  0  0  0  0
 28 20  2  0  0  0  0
 30 38  1  0  0  0  0
 31 33  1  0  0  0  0
 31 30  2  0  0  0  0
 32 31  1  0  0  0  0
 33 35  2  0  0  0  0
 34 33  1  0  0  0  0
 35  3  1  0  0  0  0
 35 36  1  0  0  0  0
 36 37  1  0  0  0  0
 38 36  2  0  0  0  0
 38 39  1  0  0  0  0
 40 41  1  0  0  0  0
 40  3  1  0  0  0  0
 40 43  1  0  0  0  0
 42 40  1  0  0  0  0
 44 46  1  0  0  0  0
 45 44  1  0  0  0  0
 47 44  1  0  0  0  0
M  END
