1,20,21
 OpenBabel05122313063D

 23 24  0  0  1  0  0  0  0  0999 V2000
    0.0017   -1.7896   -0.8068 C   0  0  0  0  0  2  0  0  0  0  0  0
   -2.5452   -1.3720   -0.6808 C   0  0  1  0  0  3  0  0  0  0  0  0
   -3.9370   -1.5500   -0.7319 C   0  0  0  0  0  0  0  0  0  0  0  0
   -4.3484   -2.5031   -1.0933 H   0  0  0  0  0  0  0  0  0  0  0  0
   -4.7651   -0.5049   -0.3131 C   0  0  0  0  0  0  0  0  0  0  0  0
   -5.8590   -0.6144   -0.3419 H   0  0  0  0  0  0  0  0  0  0  0  0
   -4.1652    0.6766    0.1517 C   0  0  0  0  0  0  0  0  0  0  0  0
   -4.7667    1.5255    0.5052 H   0  0  0  0  0  0  0  0  0  0  0  0
   -2.7739    0.7733    0.1736 C   0  0  0  0  0  0  0  0  0  0  0  0
   -2.2750    1.6760    0.5452 H   0  0  0  0  0  0  0  0  0  0  0  0
    2.5480   -1.3676   -0.6812 C   0  0  2  0  0  3  0  0  0  0  0  0
    3.9401   -1.5432   -0.7323 C   0  0  0  0  0  0  0  0  0  0  0  0
    4.3532   -2.4953   -1.0942 H   0  0  0  0  0  0  0  0  0  0  0  0
    4.7664   -0.4968   -0.3131 C   0  0  0  0  0  0  0  0  0  0  0  0
    5.8604   -0.6043   -0.3420 H   0  0  0  0  0  0  0  0  0  0  0  0
    4.1644    0.6834    0.1523 C   0  0  0  0  0  0  0  0  0  0  0  0
    4.7645    1.5332    0.5062 H   0  0  0  0  0  0  0  0  0  0  0  0
    2.7729    0.7777    0.1743 C   0  0  0  0  0  0  0  0  0  0  0  0
    2.2723    1.6793    0.5462 H   0  0  0  0  0  0  0  0  0  0  0  0
   -1.9515   -0.2236   -0.2460 N   0  0  0  0  0  2  0  0  0  0  0  0
    1.9523   -0.2204   -0.2458 N   0  0  0  0  0  2  0  0  0  0  0  0
   -1.4657   -2.6692   -1.1752 S   0  0  0  0  0  0  0  0  0  0  0  0
    1.4706   -2.6665   -1.1760 S   0  0  0  0  0  0  0  0  0  0  0  0
  2 22  1  1  0  0  0
  2 20  1  0  0  0  0
  3  2  1  0  0  0  0
  3  5  2  0  0  0  0
  4  3  1  0  0  0  0
  5  7  1  0  0  0  0
  6  5  1  0  0  0  0
  7  9  2  0  0  0  0
  7  8  1  0  0  0  0
  9 10  1  0  0  0  0
 11 23  1  1  0  0  0
 11 21  1  0  0  0  0
 12 11  1  0  0  0  0
 12 14  2  0  0  0  0
 13 12  1  0  0  0  0
 14 16  1  0  0  0  0
 15 14  1  0  0  0  0
 16 18  2  0  0  0  0
 16 17  1  0  0  0  0
 18 19  1  0  0  0  0
 20  9  1  0  0  0  0
 21 18  1  0  0  0  0
 22  1  1  0  0  0  0
 23  1  1  0  0  0  0
M  END
