3,5,14
 OpenBabel05122313063D

 77 83  0  0  1  0  0  0  0  0999 V2000
   -4.6238   -0.5935   -2.2350 O   0  0  0  0  0  0  0  0  0  0  0  0
    4.6356   -0.5392    2.2427 O   0  0  0  0  0  0  0  0  0  0  0  0
   -2.0703   -1.6841    0.0005 N   0  0  2  0  0  0  0  0  0  0  0  0
   -3.6294    0.0543   -0.2057 N   0  0  0  0  0  0  0  0  0  0  0  0
    2.1021   -1.6583   -0.0013 N   0  0  2  0  0  0  0  0  0  0  0  0
    3.6393    0.0988    0.2111 N   0  0  0  0  0  0  0  0  0  0  0  0
   -0.6626    4.7873    1.3313 C   0  0  0  0  0  0  0  0  0  0  0  0
   -0.9620    4.7676   -1.1746 C   0  0  0  0  0  0  0  0  0  0  0  0
    1.3290    4.9248   -0.1763 C   0  0  0  0  0  0  0  0  0  0  0  0
   -0.0649    4.2957   -0.0072 C   0  0  0  0  0  0  0  0  0  0  0  0
   -0.0098    2.7567   -0.0061 C   0  0  0  0  0  0  0  0  0  0  0  0
   -1.2103    2.0269    0.1745 C   0  0  0  0  0  0  0  0  0  0  0  0
   -1.2035    0.6248    0.2002 C   0  0  0  0  0  0  0  0  0  0  0  0
    0.0080   -0.0592    0.0004 C   0  0  0  0  0  3  0  0  0  0  0  0
    1.2069    0.6398   -0.2021 C   0  0  0  0  0  0  0  0  0  0  0  0
    1.1980    2.0467   -0.1841 C   0  0  0  0  0  0  0  0  0  0  0  0
   -2.3809   -0.2898    0.4885 C   0  0  2  0  0  0  0  0  0  0  0  0
   -4.5106    1.0511    0.2766 C   0  0  0  0  0  0  0  0  0  0  0  0
   -4.2790    1.6498    1.5383 C   0  0  0  0  0  0  0  0  0  0  0  0
   -5.1515    2.6306    2.0283 C   0  0  0  0  0  0  0  0  0  0  0  0
   -6.2661    3.0354    1.2795 C   0  0  0  0  0  0  0  0  0  0  0  0
   -6.4957    2.4421    0.0286 C   0  0  0  0  0  0  0  0  0  0  0  0
   -5.6347    1.4609   -0.4792 C   0  0  0  0  0  0  0  0  0  0  0  0
   -3.7570   -0.6876   -1.3791 C   0  0  0  0  0  0  0  0  0  0  0  0
   -2.6017   -1.7002   -1.4042 C   0  0  2  0  0  0  0  0  0  0  0  0
   -3.0631   -3.1291   -1.6467 C   0  0  0  0  0  0  0  0  0  0  0  0
   -3.7080   -3.4930   -0.3005 C   0  0  0  0  0  0  0  0  0  0  0  0
   -2.8441   -2.7660    0.7444 C   0  0  0  0  0  0  0  0  0  0  0  0
    2.3968   -0.2594   -0.4874 C   0  0  2  0  0  0  0  0  0  0  0  0
    4.5134    1.1026   -0.2696 C   0  0  0  0  0  0  0  0  0  0  0  0
    4.2809    1.6980   -1.5327 C   0  0  0  0  0  0  0  0  0  0  0  0
    5.1473    2.6846   -2.0215 C   0  0  0  0  0  0  0  0  0  0  0  0
    6.2567    3.0987   -1.2703 C   0  0  0  0  0  0  0  0  0  0  0  0
    6.4872    2.5090   -0.0179 C   0  0  0  0  0  0  0  0  0  0  0  0
    5.6321    1.5222    0.4889 C   0  0  0  0  0  0  0  0  0  0  0  0
    3.7724   -0.6426    1.3841 C   0  0  0  0  0  0  0  0  0  0  0  0
    2.6301   -1.6696    1.4047 C   0  0  2  0  0  0  0  0  0  0  0  0
    3.1093   -3.0929    1.6464 C   0  0  0  0  0  0  0  0  0  0  0  0
    3.7618   -3.4467    0.3012 C   0  0  0  0  0  0  0  0  0  0  0  0
    2.8904   -2.7300   -0.7446 C   0  0  0  0  0  0  0  0  0  0  0  0
   -0.0408    4.4562    2.1875 H   0  0  0  0  0  0  0  0  0  0  0  0
   -0.7124    5.8957    1.3494 H   0  0  0  0  0  0  0  0  0  0  0  0
   -1.6906    4.4039    1.4896 H   0  0  0  0  0  0  0  0  0  0  0  0
   -1.9939    4.3729   -1.0860 H   0  0  0  0  0  0  0  0  0  0  0  0
   -1.0255    5.8754   -1.1923 H   0  0  0  0  0  0  0  0  0  0  0  0
   -0.5539    4.4298   -2.1486 H   0  0  0  0  0  0  0  0  0  0  0  0
    1.8019    4.6348   -1.1363 H   0  0  0  0  0  0  0  0  0  0  0  0
    1.2452    6.0301   -0.1674 H   0  0  0  0  0  0  0  0  0  0  0  0
    2.0160    4.6352    0.6442 H   0  0  0  0  0  0  0  0  0  0  0  0
   -2.1569    2.5717    0.3024 H   0  0  0  0  0  0  0  0  0  0  0  0
    2.1381    2.5974   -0.3153 H   0  0  0  0  0  0  0  0  0  0  0  0
   -2.5623   -0.3571    1.5804 H   0  0  0  0  0  0  0  0  0  0  0  0
   -3.4075    1.3710    2.1451 H   0  0  0  0  0  0  0  0  0  0  0  0
   -4.9484    3.0834    3.0106 H   0  0  0  0  0  0  0  0  0  0  0  0
   -6.9468    3.8080    1.6662 H   0  0  0  0  0  0  0  0  0  0  0  0
   -7.3640    2.7481   -0.5747 H   0  0  0  0  0  0  0  0  0  0  0  0
   -5.8138    0.9979   -1.4560 H   0  0  0  0  0  0  0  0  0  0  0  0
   -1.8258   -1.3507   -2.1148 H   0  0  0  0  0  0  0  0  0  0  0  0
   -3.7628   -3.1752   -2.5030 H   0  0  0  0  0  0  0  0  0  0  0  0
   -2.1796   -3.7685   -1.8433 H   0  0  0  0  0  0  0  0  0  0  0  0
   -4.7562   -3.1314   -0.2696 H   0  0  0  0  0  0  0  0  0  0  0  0
   -3.7174   -4.5846   -0.1211 H   0  0  0  0  0  0  0  0  0  0  0  0
   -2.0950   -3.4477    1.1867 H   0  0  0  0  0  0  0  0  0  0  0  0
   -3.4434   -2.2972    1.5495 H   0  0  0  0  0  0  0  0  0  0  0  0
    2.5837   -0.3240   -1.5787 H   0  0  0  0  0  0  0  0  0  0  0  0
    3.4133    1.4115   -2.1416 H   0  0  0  0  0  0  0  0  0  0  0  0
    4.9437    3.1348   -3.0049 H   0  0  0  0  0  0  0  0  0  0  0  0
    6.9326    3.8759   -1.6562 H   0  0  0  0  0  0  0  0  0  0  0  0
    7.3514    2.8224    0.5875 H   0  0  0  0  0  0  0  0  0  0  0  0
    5.8119    1.0620    1.4669 H   0  0  0  0  0  0  0  0  0  0  0  0
    1.8481   -1.3312    2.1139 H   0  0  0  0  0  0  0  0  0  0  0  0
    3.8075   -3.1311    2.5042 H   0  0  0  0  0  0  0  0  0  0  0  0
    2.2335   -3.7438    1.8402 H   0  0  0  0  0  0  0  0  0  0  0  0
    4.8051   -3.0711    0.2730 H   0  0  0  0  0  0  0  0  0  0  0  0
    3.7862   -4.5379    0.1205 H   0  0  0  0  0  0  0  0  0  0  0  0
    2.1506   -3.4208   -1.1883 H   0  0  0  0  0  0  0  0  0  0  0  0
    3.4849   -2.2533   -1.5486 H   0  0  0  0  0  0  0  0  0  0  0  0
  1 24  2  0  0  0  0
  3 17  1  0  0  0  0
  3 28  1  1  0  0  0
  4 18  1  0  0  0  0
  4 17  1  0  0  0  0
  5 40  1  6  0  0  0
  5 37  1  0  0  0  0
  6 36  1  0  0  0  0
  7 42  1  0  0  0  0
  7 43  1  0  0  0  0
  7 41  1  0  0  0  0
  8 44  1  0  0  0  0
  8 10  1  0  0  0  0
  9 48  1  0  0  0  0
  9 10  1  0  0  0  0
  9 49  1  0  0  0  0
 10 11  1  0  0  0  0
 10  7  1  0  0  0  0
 11 12  1  0  0  0  0
 12 13  2  0  0  0  0
 12 50  1  0  0  0  0
 13 17  1  0  0  0  0
 14 13  1  0  0  0  0
 15 16  1  0  0  0  0
 15 14  2  0  0  0  0
 16 11  2  0  0  0  0
 17 52  1  1  0  0  0
 18 19  1  0  0  0  0
 19 20  2  0  0  0  0
 19 53  1  0  0  0  0
 20 54  1  0  0  0  0
 21 55  1  0  0  0  0
 21 20  1  0  0  0  0
 22 21  2  0  0  0  0
 23 22  1  0  0  0  0
 23 18  2  0  0  0  0
 24  4  1  0  0  0  0
 25 58  1  6  0  0  0
 25 24  1  0  0  0  0
 25  3  1  0  0  0  0
 26 25  1  0  0  0  0
 26 27  1  0  0  0  0
 27 61  1  0  0  0  0
 27 62  1  0  0  0  0
 27 28  1  0  0  0  0
 28 63  1  0  0  0  0
 28 64  1  0  0  0  0
 29 65  1  6  0  0  0
 29 15  1  0  0  0  0
 29  5  1  0  0  0  0
 29  6  1  0  0  0  0
 30  6  1  0  0  0  0
 30 35  1  0  0  0  0
 31 30  2  0  0  0  0
 32 31  1  0  0  0  0
 32 33  2  0  0  0  0
 33 34  1  0  0  0  0
 34 35  2  0  0  0  0
 34 69  1  0  0  0  0
 35 70  1  0  0  0  0
 36 37  1  0  0  0  0
 36  2  2  0  0  0  0
 37 38  1  0  0  0  0
 37 71  1  1  0  0  0
 38 73  1  0  0  0  0
 38 72  1  0  0  0  0
 39 38  1  0  0  0  0
 40 39  1  0  0  0  0
 45  8  1  0  0  0  0
 46  8  1  0  0  0  0
 47  9  1  0  0  0  0
 51 16  1  0  0  0  0
 56 22  1  0  0  0  0
 57 23  1  0  0  0  0
 59 26  1  0  0  0  0
 60 26  1  0  0  0  0
 66 31  1  0  0  0  0
 67 32  1  0  0  0  0
 68 33  1  0  0  0  0
 74 39  1  0  0  0  0
 75 39  1  0  0  0  0
 76 40  1  0  0  0  0
 77 40  1  0  0  0  0
M  END
