9,11
 OpenBabel05122313063D

 77 81  0  0  1  0  0  0  0  0999 V2000
    1.4028   -1.3319   -1.4994 S   0  0  0  0  0  0  0  0  0  0  0  0
    4.0937    0.2030   -2.0933 F   0  0  0  0  0  0  0  0  0  0  0  0
    6.1618    0.5606   -0.4482 F   0  0  0  0  0  0  0  0  0  0  0  0
    6.2268   -0.6408    2.0079 F   0  0  0  0  0  0  0  0  0  0  0  0
    4.1179   -2.1900    2.8282 F   0  0  0  0  0  0  0  0  0  0  0  0
    1.9777   -2.5180    1.2353 F   0  0  0  0  0  0  0  0  0  0  0  0
    1.6993   -0.6783   -2.7930 O   0  0  0  0  0  0  0  0  0  0  0  0
    1.0400   -2.7641   -1.4605 O   0  0  0  0  0  0  0  0  0  0  0  0
   -1.9454    0.9274   -0.8904 N   0  0  0  0  0  0  0  0  0  0  0  0
   -1.8442    0.9044   -1.9272 H   0  0  0  0  0  0  0  0  0  0  0  0
    0.3372   -0.4651   -0.5554 N   0  0  0  0  0  2  0  0  0  0  0  0
   -3.6169   -1.9300   -0.0682 C   0  0  2  0  0  3  0  0  0  0  0  0
   -4.9084   -1.6851   -0.7821 C   0  0  0  0  0  0  0  0  0  0  0  0
   -5.6097   -2.5322   -0.6294 H   0  0  0  0  0  0  0  0  0  0  0  0
   -4.7405   -1.5820   -1.8740 H   0  0  0  0  0  0  0  0  0  0  0  0
   -5.4081   -0.7704   -0.4095 H   0  0  0  0  0  0  0  0  0  0  0  0
   -2.7193   -3.0519   -0.3067 C   0  0  0  0  0  0  0  0  0  0  0  0
   -2.9058   -4.0824   -1.3709 C   0  0  0  0  0  0  0  0  0  0  0  0
   -1.9777   -4.6605   -1.5313 H   0  0  0  0  0  0  0  0  0  0  0  0
   -3.1735   -3.6031   -2.3326 H   0  0  0  0  0  0  0  0  0  0  0  0
   -3.7183   -4.7866   -1.0899 H   0  0  0  0  0  0  0  0  0  0  0  0
   -1.6500   -3.0148    0.6526 C   0  0  0  0  0  0  0  0  0  0  0  0
   -0.6000   -4.0667    0.8155 C   0  0  0  0  0  0  0  0  0  0  0  0
   -1.0729   -5.0678    0.8861 H   0  0  0  0  0  0  0  0  0  0  0  0
   -0.0034   -3.8997    1.7297 H   0  0  0  0  0  0  0  0  0  0  0  0
    0.0996   -4.0586   -0.0422 H   0  0  0  0  0  0  0  0  0  0  0  0
   -1.8290   -1.8268    1.4806 C   0  0  2  0  0  3  0  0  0  0  0  0
   -0.9377   -1.4034    2.6029 C   0  0  0  0  0  0  0  0  0  0  0  0
   -1.0969   -0.3381    2.8571 H   0  0  0  0  0  0  0  0  0  0  0  0
    0.1237   -1.5453    2.3260 H   0  0  0  0  0  0  0  0  0  0  0  0
   -1.1344   -2.0011    3.5188 H   0  0  0  0  0  0  0  0  0  0  0  0
   -3.0505   -1.1704    1.0398 C   0  0  1  0  0  3  0  0  0  0  0  0
   -3.5847    0.0822    1.6276 C   0  0  0  0  0  0  0  0  0  0  0  0
   -3.9708    0.0605    2.9846 C   0  0  0  0  0  0  0  0  0  0  0  0
   -3.8954   -0.8872    3.5388 H   0  0  0  0  0  0  0  0  0  0  0  0
   -4.4464    1.2120    3.6256 C   0  0  0  0  0  0  0  0  0  0  0  0
   -4.7457    1.1681    4.6835 H   0  0  0  0  0  0  0  0  0  0  0  0
   -4.5281    2.4166    2.9130 C   0  0  0  0  0  0  0  0  0  0  0  0
   -4.8863    3.3325    3.4062 H   0  0  0  0  0  0  0  0  0  0  0  0
   -4.1392    2.4534    1.5668 C   0  0  0  0  0  0  0  0  0  0  0  0
   -4.1837    3.4031    1.0115 H   0  0  0  0  0  0  0  0  0  0  0  0
   -3.6756    1.3022    0.9006 C   0  0  0  0  0  0  0  0  0  0  0  0
   -3.3008    1.4178   -0.5614 C   0  0  0  0  0  0  0  0  0  0  0  0
   -3.9926    0.8357   -1.2028 H   0  0  0  0  0  0  0  0  0  0  0  0
   -3.3881    2.4823   -0.8644 H   0  0  0  0  0  0  0  0  0  0  0  0
   -0.8186    1.6621   -0.2673 C   0  0  1  0  0  0  0  0  0  0  0  0
   -0.8995    1.4946    0.8267 H   0  0  0  0  0  0  0  0  0  0  0  0
    0.4733    0.9890   -0.7730 C   0  0  1  0  0  0  0  0  0  0  0  0
    0.5617    1.2133   -1.8616 H   0  0  0  0  0  0  0  0  0  0  0  0
   -0.8578    3.1515   -0.5430 C   0  0  0  0  0  0  0  0  0  0  0  0
   -0.8949    4.0693    0.5221 C   0  0  0  0  0  0  0  0  0  0  0  0
   -0.8945    3.6914    1.5564 H   0  0  0  0  0  0  0  0  0  0  0  0
   -0.9233    5.4503    0.2749 C   0  0  0  0  0  0  0  0  0  0  0  0
   -0.9444    6.1572    1.1182 H   0  0  0  0  0  0  0  0  0  0  0  0
   -0.9226    5.9276   -1.0447 C   0  0  0  0  0  0  0  0  0  0  0  0
   -0.9455    7.0103   -1.2410 H   0  0  0  0  0  0  0  0  0  0  0  0
   -0.8899    5.0185   -2.1151 C   0  0  0  0  0  0  0  0  0  0  0  0
   -0.8858    5.3867   -3.1522 H   0  0  0  0  0  0  0  0  0  0  0  0
   -0.8550    3.6392   -1.8658 C   0  0  0  0  0  0  0  0  0  0  0  0
   -0.8190    2.9358   -2.7136 H   0  0  0  0  0  0  0  0  0  0  0  0
    1.6787    1.6006   -0.0716 C   0  0  0  0  0  0  0  0  0  0  0  0
    1.9353    1.3107    1.2828 C   0  0  0  0  0  0  0  0  0  0  0  0
    1.2719    0.6091    1.8114 H   0  0  0  0  0  0  0  0  0  0  0  0
    3.0457    1.8679    1.9311 C   0  0  0  0  0  0  0  0  0  0  0  0
    3.2472    1.6208    2.9849 H   0  0  0  0  0  0  0  0  0  0  0  0
    3.9117    2.7275    1.2324 C   0  0  0  0  0  0  0  0  0  0  0  0
    4.7929    3.1526    1.7363 H   0  0  0  0  0  0  0  0  0  0  0  0
    3.6555    3.0291   -0.1135 C   0  0  0  0  0  0  0  0  0  0  0  0
    4.3353    3.6920   -0.6696 H   0  0  0  0  0  0  0  0  0  0  0  0
    2.5420    2.4697   -0.7602 C   0  0  0  0  0  0  0  0  0  0  0  0
    2.3520    2.6845   -1.8225 H   0  0  0  0  0  0  0  0  0  0  0  0
    2.9494   -1.1964   -0.5073 C   0  0  0  0  0  0  0  0  0  0  0  0
    4.0502   -0.4214   -0.9185 C   0  0  0  0  0  0  0  0  0  0  0  0
    5.1499   -0.2226   -0.0636 C   0  0  0  0  0  0  0  0  0  0  0  0
    5.1858   -0.8348    1.1962 C   0  0  0  0  0  0  0  0  0  0  0  0
    4.1026   -1.6239    1.6153 C   0  0  0  0  0  0  0  0  0  0  0  0
    3.0074   -1.8009    0.7602 C   0  0  0  0  0  0  0  0  0  0  0  0
  1  8  2  0  0  0  0
  1 11  1  0  0  0  0
  1 72  1  0  0  0  0
  2 73  1  0  0  0  0
  3 74  1  0  0  0  0
  7  1  2  0  0  0  0
  9 43  1  0  0  0  0
  9 46  1  0  0  0  0
 10  9  1  0  0  0  0
 12 13  1  1  0  0  0
 12 32  1  0  0  0  0
 13 14  1  0  0  0  0
 13 16  1  0  0  0  0
 15 13  1  0  0  0  0
 17 12  1  0  0  0  0
 17 22  2  0  0  0  0
 18 21  1  0  0  0  0
 18 17  1  0  0  0  0
 19 18  1  0  0  0  0
 20 18  1  0  0  0  0
 22 23  1  0  0  0  0
 22 27  1  0  0  0  0
 23 24  1  0  0  0  0
 23 25  1  0  0  0  0
 26 23  1  0  0  0  0
 27 28  1  1  0  0  0
 28 29  1  0  0  0  0
 28 31  1  0  0  0  0
 30 28  1  0  0  0  0
 32 27  1  0  0  0  0
 32 33  1  6  0  0  0
 33 34  1  0  0  0  0
 34 35  1  0  0  0  0
 34 36  2  0  0  0  0
 36 37  1  0  0  0  0
 38 39  1  0  0  0  0
 38 36  1  0  0  0  0
 40 38  2  0  0  0  0
 41 40  1  0  0  0  0
 42 40  1  0  0  0  0
 42 33  2  0  0  0  0
 43 42  1  0  0  0  0
 44 43  1  0  0  0  0
 45 43  1  0  0  0  0
 46 47  1  1  0  0  0
 48 49  1  6  0  0  0
 48 11  1  0  0  0  0
 48 46  1  0  0  0  0
 48 61  1  0  0  0  0
 50 46  1  0  0  0  0
 50 51  1  0  0  0  0
 51 52  1  0  0  0  0
 53 51  2  0  0  0  0
 53 54  1  0  0  0  0
 55 53  1  0  0  0  0
 56 55  1  0  0  0  0
 57 59  1  0  0  0  0
 57 55  2  0  0  0  0
 58 57  1  0  0  0  0
 59 50  2  0  0  0  0
 60 59  1  0  0  0  0
 61 62  1  0  0  0  0
 62 63  1  0  0  0  0
 62 64  2  0  0  0  0
 64 65  1  0  0  0  0
 66 67  1  0  0  0  0
 66 64  1  0  0  0  0
 68 66  2  0  0  0  0
 69 68  1  0  0  0  0
 70 68  1  0  0  0  0
 70 61  2  0  0  0  0
 71 70  1  0  0  0  0
 72 77  1  0  0  0  0
 73 72  2  0  0  0  0
 73 74  1  0  0  0  0
 74 75  2  0  0  0  0
 75 76  1  0  0  0  0
 75  4  1  0  0  0  0
 76  5  1  0  0  0  0
 77  6  1  0  0  0  0
 77 76  2  0  0  0  0
M  END
