1,2,5
 OpenBabel05122313063D

 45 47  0  0  1  0  0  0  0  0999 V2000
    1.4640    1.9047    0.5423 N   0  0  0  0  0  2  0  0  0  0  0  0
   -0.6218   -1.2954   -0.7849 N   0  0  0  0  0  2  0  0  0  0  0  0
    1.2447    4.1499    0.3889 O   0  0  0  0  0  0  0  0  0  0  0  0
   -2.5038   -1.6033   -1.9965 O   0  0  0  0  0  0  0  0  0  0  0  0
   -0.6336    1.2531   -0.7492 C   0  0  0  0  0  3  0  0  0  0  0  0
   -0.4723    2.6619   -0.6269 C   0  0  0  0  0  0  0  0  0  0  0  0
   -1.4289    3.5362   -1.2018 C   0  0  0  0  0  0  0  0  0  0  0  0
   -2.5174    2.9499   -1.8874 C   0  0  0  0  0  0  0  0  0  0  0  0
   -3.2675    3.6221   -2.3336 H   0  0  0  0  0  0  0  0  0  0  0  0
   -2.7032    1.5556   -2.0406 C   0  0  0  0  0  0  0  0  0  0  0  0
   -1.7354    0.7016   -1.4613 C   0  0  0  0  0  0  0  0  0  0  0  0
    0.7439    2.9309    0.1118 C   0  0  1  0  0  3  0  0  0  0  0  0
    2.5613    3.9288    0.9630 C   0  0  0  0  0  0  0  0  0  0  0  0
    2.6656    4.5869    1.8470 H   0  0  0  0  0  0  0  0  0  0  0  0
    3.3145    4.2170    0.1996 H   0  0  0  0  0  0  0  0  0  0  0  0
    2.6303    2.4103    1.3061 C   0  0  0  0  0  0  0  0  0  0  0  0
    2.4108    2.1378    2.8015 C   0  0  0  0  0  0  0  0  0  0  0  0
    1.4863    2.6286    3.1651 H   0  0  0  0  0  0  0  0  0  0  0  0
    3.2695    2.5136    3.3941 H   0  0  0  0  0  0  0  0  0  0  0  0
    2.3166    1.0481    2.9735 H   0  0  0  0  0  0  0  0  0  0  0  0
    3.9351    1.7713    0.8200 C   0  0  0  0  0  0  0  0  0  0  0  0
    4.0170    1.8266   -0.2825 H   0  0  0  0  0  0  0  0  0  0  0  0
    3.9786    0.7077    1.1217 H   0  0  0  0  0  0  0  0  0  0  0  0
    4.8056    2.2884    1.2725 H   0  0  0  0  0  0  0  0  0  0  0  0
   -1.6477   -0.7411   -1.4161 C   0  0  2  0  0  3  0  0  0  0  0  0
   -2.1049   -2.9184   -1.5094 C   0  0  0  0  0  0  0  0  0  0  0  0
   -2.2788   -3.6502   -2.3197 H   0  0  0  0  0  0  0  0  0  0  0  0
   -2.7405   -3.1534   -0.6283 H   0  0  0  0  0  0  0  0  0  0  0  0
   -0.6191   -2.7504   -1.1174 C   0  0  0  0  0  0  0  0  0  0  0  0
   -0.1955   -3.6148    0.0652 C   0  0  0  0  0  0  0  0  0  0  0  0
   -0.2276   -4.6874   -0.2115 H   0  0  0  0  0  0  0  0  0  0  0  0
   -0.8580   -3.4467    0.9332 H   0  0  0  0  0  0  0  0  0  0  0  0
    0.8407   -3.3636    0.3643 H   0  0  0  0  0  0  0  0  0  0  0  0
    0.3010   -2.9764   -2.3308 C   0  0  0  0  0  0  0  0  0  0  0  0
    1.3410   -2.6891   -2.0942 H   0  0  0  0  0  0  0  0  0  0  0  0
   -0.0305   -2.3671   -3.1951 H   0  0  0  0  0  0  0  0  0  0  0  0
    0.2875   -4.0456   -2.6248 H   0  0  0  0  0  0  0  0  0  0  0  0
   -1.3023    5.0321   -1.0879 C   0  0  0  0  0  0  0  0  0  0  0  0
   -0.3600    5.3908   -1.5510 H   0  0  0  0  0  0  0  0  0  0  0  0
   -1.2607    5.3535   -0.0269 H   0  0  0  0  0  0  0  0  0  0  0  0
   -2.1505    5.5475   -1.5771 H   0  0  0  0  0  0  0  0  0  0  0  0
   -3.8912    1.0081   -2.7848 C   0  0  0  0  0  0  0  0  0  0  0  0
   -4.4565    0.2903   -2.1566 H   0  0  0  0  0  0  0  0  0  0  0  0
   -3.5731    0.4411   -3.6840 H   0  0  0  0  0  0  0  0  0  0  0  0
   -4.5758    1.8161   -3.1058 H   0  0  0  0  0  0  0  0  0  0  0  0
  1 16  1  0  0  0  0
  3 13  1  0  0  0  0
  4 26  1  0  0  0  0
  4 25  1  0  0  0  0
  5  6  1  0  0  0  0
  7 38  1  0  0  0  0
  7  6  2  0  0  0  0
  8  7  1  0  0  0  0
  9  8  1  0  0  0  0
 10  8  2  0  0  0  0
 10 11  1  0  0  0  0
 11  5  2  0  0  0  0
 12  6  1  6  0  0  0
 12  3  1  0  0  0  0
 12  1  1  0  0  0  0
 13 16  1  0  0  0  0
 13 14  1  0  0  0  0
 15 13  1  0  0  0  0
 16 17  1  0  0  0  0
 17 20  1  0  0  0  0
 17 18  1  0  0  0  0
 17 19  1  0  0  0  0
 21 23  1  0  0  0  0
 21 24  1  0  0  0  0
 21 16  1  0  0  0  0
 22 21  1  0  0  0  0
 25 11  1  6  0  0  0
 25  2  1  0  0  0  0
 26 29  1  0  0  0  0
 26 28  1  0  0  0  0
 27 26  1  0  0  0  0
 29  2  1  0  0  0  0
 29 30  1  0  0  0  0
 30 33  1  0  0  0  0
 30 32  1  0  0  0  0
 31 30  1  0  0  0  0
 34 35  1  0  0  0  0
 34 29  1  0  0  0  0
 36 34  1  0  0  0  0
 37 34  1  0  0  0  0
 38 40  1  0  0  0  0
 39 38  1  0  0  0  0
 41 38  1  0  0  0  0
 42 43  1  0  0  0  0
 42 10  1  0  0  0  0
 44 42  1  0  0  0  0
 45 42  1  0  0  0  0
M  END
