2,3,32
 OpenBabel05122313063D

 38 40  0  0  1  0  0  0  0  0999 V2000
   -1.3153   -2.8439   -1.4179 O   0  0  0  0  0  0  0  0  0  0  0  0
    2.2105    0.1873    0.2893 N   0  0  0  0  0  2  0  0  0  0  0  0
    0.1134   -1.1682   -0.6752 N   0  0  0  0  0  2  0  0  0  0  0  0
    3.2113    0.9298    0.7669 C   0  0  0  0  0  0  0  0  0  0  0  0
    3.0106    2.0123    0.8454 H   0  0  0  0  0  0  0  0  0  0  0  0
    4.4511    0.3581    1.1427 C   0  0  0  0  0  0  0  0  0  0  0  0
    5.2474    1.0091    1.5307 H   0  0  0  0  0  0  0  0  0  0  0  0
    4.6338   -1.0109    1.0148 C   0  0  0  0  0  0  0  0  0  0  0  0
    5.5870   -1.4826    1.3011 H   0  0  0  0  0  0  0  0  0  0  0  0
    3.5848   -1.8289    0.5078 C   0  0  0  0  0  0  0  0  0  0  0  0
    3.6876   -3.2382    0.3436 C   0  0  0  0  0  0  0  0  0  0  0  0
    4.6246   -3.7453    0.6174 H   0  0  0  0  0  0  0  0  0  0  0  0
    2.6027   -3.9454   -0.1621 C   0  0  0  0  0  0  0  0  0  0  0  0
    2.6791   -5.0363   -0.2908 H   0  0  0  0  0  0  0  0  0  0  0  0
    1.3912   -3.3111   -0.5257 C   0  0  0  0  0  0  0  0  0  0  0  0
    0.5451   -3.8811   -0.9263 H   0  0  0  0  0  0  0  0  0  0  0  0
    1.2427   -1.9201   -0.3798 C   0  0  0  0  0  0  0  0  0  0  0  0
    2.3593   -1.1733    0.1453 C   0  0  1  0  0  3  0  0  0  0  0  0
   -1.0926   -1.6704   -1.1222 C   0  0  0  0  0  0  0  0  0  0  0  0
   -2.2040   -0.5742   -1.1600 C   0  0  1  0  0  0  0  0  0  0  0  0
   -2.9608   -0.7346    0.1719 C   0  0  0  0  0  0  0  0  0  0  0  0
   -4.1222   -1.5296    0.2659 C   0  0  0  0  0  0  0  0  0  0  0  0
   -4.5165   -2.0309   -0.6279 H   0  0  0  0  0  0  0  0  0  0  0  0
   -4.7891   -1.6995    1.4891 C   0  0  0  0  0  0  0  0  0  0  0  0
   -5.6952   -2.3237    1.5293 H   0  0  0  0  0  0  0  0  0  0  0  0
   -4.3078   -1.0845    2.6540 C   0  0  0  0  0  0  0  0  0  0  0  0
   -4.8311   -1.2192    3.6129 H   0  0  0  0  0  0  0  0  0  0  0  0
   -3.1455   -0.3012    2.5813 C   0  0  0  0  0  0  0  0  0  0  0  0
   -2.7454    0.1804    3.4873 H   0  0  0  0  0  0  0  0  0  0  0  0
   -2.4834   -0.1329    1.3572 C   0  0  0  0  0  0  0  0  0  0  0  0
   -1.5565    0.4632    1.3147 H   0  0  0  0  0  0  0  0  0  0  0  0
   -1.5586    0.8233   -1.2797 C   0  0  0  0  0  3  0  0  0  0  0  0
   -2.2507    1.6055   -0.9002 H   0  0  0  0  0  0  0  0  0  0  0  0
   -1.3345    1.0409   -2.3471 H   0  0  0  0  0  0  0  0  0  0  0  0
   -3.1063   -0.8565   -2.3715 C   0  0  0  0  0  0  0  0  0  0  0  0
   -3.3919   -1.9262   -2.3961 H   0  0  0  0  0  0  0  0  0  0  0  0
   -2.5548   -0.6473   -3.3096 H   0  0  0  0  0  0  0  0  0  0  0  0
   -4.0188   -0.2281   -2.3504 H   0  0  0  0  0  0  0  0  0  0  0  0
  1 19  2  0  0  0  0
  2  4  1  0  0  0  0
  3 17  1  0  0  0  0
  4  5  1  0  0  0  0
  4  6  2  0  0  0  0
  6  7  1  0  0  0  0
  8  6  1  0  0  0  0
  8  9  1  0  0  0  0
 10  8  2  0  0  0  0
 11 10  1  0  0  0  0
 11 12  1  0  0  0  0
 13 11  2  0  0  0  0
 14 13  1  0  0  0  0
 15 17  2  0  0  0  0
 15 13  1  0  0  0  0
 16 15  1  0  0  0  0
 18 17  1  1  0  0  0
 18  2  1  0  0  0  0
 18 10  1  0  0  0  0
 19  3  1  0  0  0  0
 20 32  1  6  0  0  0
 20 19  1  0  0  0  0
 20 21  1  0  0  0  0
 21 22  2  0  0  0  0
 21 30  1  0  0  0  0
 22 24  1  0  0  0  0
 23 22  1  0  0  0  0
 24 25  1  0  0  0  0
 24 26  2  0  0  0  0
 26 27  1  0  0  0  0
 28 26  1  0  0  0  0
 28 29  1  0  0  0  0
 30 28  2  0  0  0  0
 31 30  1  0  0  0  0
 32 33  1  0  0  0  0
 34 32  1  0  0  0  0
 35 38  1  0  0  0  0
 35 20  1  0  0  0  0
 36 35  1  0  0  0  0
 37 35  1  0  0  0  0
M  END
