2,9
 OpenBabel05122313063D

 40 42  0  0  1  0  0  0  0  0999 V2000
    1.9168   -0.2965    1.3746 P   0  0  1  0  0  0  0  0  0  0  0  0
    0.6954   -1.3696   -0.8077 N   0  0  0  0  0  2  0  0  0  0  0  0
    1.8345   -1.3644   -0.0307 N   0  0  0  0  0  0  0  0  0  0  0  0
    2.7702   -2.2633   -0.5024 C   0  0  2  0  0  3  0  0  0  0  0  0
    2.1909   -2.8680   -1.6121 C   0  0  0  0  0  0  0  0  0  0  0  0
    0.8998   -2.2886   -1.7701 C   0  0  0  0  0  0  0  0  0  0  0  0
    4.1011   -2.4587    0.1446 C   0  0  0  0  0  0  0  0  0  0  0  0
   -0.1333   -2.5901   -2.8035 C   0  0  0  0  0  0  0  0  0  0  0  0
    0.7742    1.5695   -0.2526 N   0  0  0  0  0  2  0  0  0  0  0  0
    1.8427    1.2647    0.5613 N   0  0  0  0  0  0  0  0  0  0  0  0
    2.7986    2.2627    0.5302 C   0  0  2  0  0  3  0  0  0  0  0  0
    2.3004    3.2391   -0.3252 C   0  0  0  0  0  0  0  0  0  0  0  0
    1.0392    2.7745   -0.7930 C   0  0  0  0  0  0  0  0  0  0  0  0
    4.0714    2.1883    1.3058 C   0  0  0  0  0  0  0  0  0  0  0  0
    0.0819    3.4423   -1.7223 C   0  0  0  0  0  0  0  0  0  0  0  0
    0.1318   -0.4589    1.8024 C   0  0  1  0  0  3  0  0  0  0  0  0
   -0.3073   -1.7801    2.1687 C   0  0  0  0  0  0  0  0  0  0  0  0
   -1.4659   -1.9701    2.9070 C   0  0  0  0  0  0  0  0  0  0  0  0
   -2.2436   -0.8551    3.3172 C   0  0  0  0  0  0  0  0  0  0  0  0
   -1.8567    0.4302    2.9649 C   0  0  0  0  0  0  0  0  0  0  0  0
   -0.6786    0.6583    2.1942 C   0  0  0  0  0  3  0  0  0  0  0  0
    2.6392   -3.6478   -2.2367 H   0  0  0  0  0  0  0  0  0  0  0  0
    4.0066   -2.7874    1.2001 H   0  0  0  0  0  0  0  0  0  0  0  0
    4.6982   -1.5223    0.1473 H   0  0  0  0  0  0  0  0  0  0  0  0
    4.6761   -3.2275   -0.4037 H   0  0  0  0  0  0  0  0  0  0  0  0
   -0.1973   -1.7793   -3.5569 H   0  0  0  0  0  0  0  0  0  0  0  0
   -1.1349   -2.6690   -2.3370 H   0  0  0  0  0  0  0  0  0  0  0  0
    0.1049   -3.5350   -3.3264 H   0  0  0  0  0  0  0  0  0  0  0  0
    2.7857    4.1861   -0.5838 H   0  0  0  0  0  0  0  0  0  0  0  0
    3.8883    2.0960    2.3964 H   0  0  0  0  0  0  0  0  0  0  0  0
    4.6684    3.1029    1.1347 H   0  0  0  0  0  0  0  0  0  0  0  0
    4.6885    1.3153    1.0050 H   0  0  0  0  0  0  0  0  0  0  0  0
   -0.9102    3.5611   -1.2422 H   0  0  0  0  0  0  0  0  0  0  0  0
   -0.0817    2.8313   -2.6322 H   0  0  0  0  0  0  0  0  0  0  0  0
    0.4599    4.4371   -2.0223 H   0  0  0  0  0  0  0  0  0  0  0  0
    0.2900   -2.6501    1.8528 H   0  0  0  0  0  0  0  0  0  0  0  0
   -1.7899   -2.9906    3.1574 H   0  0  0  0  0  0  0  0  0  0  0  0
   -3.1609   -1.0131    3.9031 H   0  0  0  0  0  0  0  0  0  0  0  0
   -2.4617    1.2977    3.2671 H   0  0  0  0  0  0  0  0  0  0  0  0
   -0.3003    1.6848    2.0884 H   0  0  0  0  0  0  0  0  0  0  0  0
  1  3  1  6  0  0  0
  2  3  1  0  0  0  0
  4  3  1  0  0  0  0
  4  7  1  1  0  0  0
  5  4  1  0  0  0  0
  6  5  2  0  0  0  0
  6  2  1  0  0  0  0
  7 24  1  0  0  0  0
  7 23  1  0  0  0  0
  8 27  1  0  0  0  0
  8  6  1  0  0  0  0
  9 10  1  0  0  0  0
 10  1  1  0  0  0  0
 11 10  1  0  0  0  0
 11 14  1  6  0  0  0
 12 11  1  0  0  0  0
 13 12  2  0  0  0  0
 13  9  1  0  0  0  0
 14 30  1  0  0  0  0
 15 33  1  0  0  0  0
 15 13  1  0  0  0  0
 16  1  1  1  0  0  0
 16 17  1  0  0  0  0
 16 21  1  0  0  0  0
 17 18  2  0  0  0  0
 18 37  1  0  0  0  0
 18 19  1  0  0  0  0
 19 38  1  0  0  0  0
 20 39  1  0  0  0  0
 20 19  2  0  0  0  0
 21 20  1  0  0  0  0
 22  5  1  0  0  0  0
 25  7  1  0  0  0  0
 26  8  1  0  0  0  0
 28  8  1  0  0  0  0
 29 12  1  0  0  0  0
 31 14  1  0  0  0  0
 32 14  1  0  0  0  0
 34 15  1  0  0  0  0
 35 15  1  0  0  0  0
 36 17  1  0  0  0  0
 40 21  1  0  0  0  0
M  END
