1,2,3
 OpenBabel05122313063D

 37 37  0  0  1  0  0  0  0  0999 V2000
    0.2311   -2.1416   -0.2114 N   0  0  0  0  0  0  0  0  0  0  0  0
    0.2300    2.1415   -0.2121 N   0  0  0  0  0  0  0  0  0  0  0  0
    2.3350    0.0002   -0.8001 C   0  0  2  0  0  3  0  0  0  0  0  0
    2.4674    1.2165   -0.0442 C   0  0  2  0  0  3  0  0  0  0  0  0
    3.0667    1.2085    1.2287 C   0  0  0  0  0  0  0  0  0  0  0  0
    3.4541    0.0011    1.8285 C   0  0  0  0  0  0  0  0  0  0  0  0
    3.0672   -1.2067    1.2293 C   0  0  0  0  0  3  0  0  0  0  0  0
    2.4679   -1.2156   -0.0436 C   0  0  1  0  0  3  0  0  0  0  0  0
    1.6966   -2.4108   -0.5442 C   0  0  0  0  0  0  0  0  0  0  0  0
   -0.1026   -2.7009    1.1245 C   0  0  0  0  0  0  0  0  0  0  0  0
   -0.6471   -2.7603   -1.2376 C   0  0  0  0  0  0  0  0  0  0  0  0
    1.6954    2.4112   -0.5449 C   0  0  0  0  0  0  0  0  0  0  0  0
   -0.1041    2.7013    1.1236 C   0  0  0  0  0  0  0  0  0  0  0  0
   -0.6484    2.7591   -1.2387 C   0  0  0  0  0  0  0  0  0  0  0  0
    2.2419   -0.0006   -2.3212 C   0  0  0  0  0  0  0  0  0  0  0  0
    3.2101    2.1618    1.7604 H   0  0  0  0  0  0  0  0  0  0  0  0
    3.9663    0.0015    2.8013 H   0  0  0  0  0  0  0  0  0  0  0  0
    3.2110   -2.1598    1.7614 H   0  0  0  0  0  0  0  0  0  0  0  0
    2.0104   -3.3644   -0.0743 H   0  0  0  0  0  0  0  0  0  0  0  0
    1.7720   -2.5247   -1.6411 H   0  0  0  0  0  0  0  0  0  0  0  0
   -1.1508   -2.4497    1.3636 H   0  0  0  0  0  0  0  0  0  0  0  0
    0.5583   -2.2576    1.8906 H   0  0  0  0  0  0  0  0  0  0  0  0
    0.0223   -3.8051    1.1161 H   0  0  0  0  0  0  0  0  0  0  0  0
   -1.7028   -2.5683   -0.9771 H   0  0  0  0  0  0  0  0  0  0  0  0
   -0.4644   -3.8550   -1.2807 H   0  0  0  0  0  0  0  0  0  0  0  0
   -0.4370   -2.3098   -2.2247 H   0  0  0  0  0  0  0  0  0  0  0  0
    2.0088    3.3651   -0.0751 H   0  0  0  0  0  0  0  0  0  0  0  0
    1.7706    2.5252   -1.6418 H   0  0  0  0  0  0  0  0  0  0  0  0
    0.5570    2.2588    1.8899 H   0  0  0  0  0  0  0  0  0  0  0  0
   -1.1522    2.4497    1.3627 H   0  0  0  0  0  0  0  0  0  0  0  0
    0.0202    3.8056    1.1145 H   0  0  0  0  0  0  0  0  0  0  0  0
   -0.4382    2.3078   -2.2254 H   0  0  0  0  0  0  0  0  0  0  0  0
   -0.4661    3.8538   -1.2827 H   0  0  0  0  0  0  0  0  0  0  0  0
   -1.7041    2.5670   -0.9780 H   0  0  0  0  0  0  0  0  0  0  0  0
    2.7506    0.8913   -2.7352 H   0  0  0  0  0  0  0  0  0  0  0  0
    1.2048   -0.0084   -2.7152 H   0  0  0  0  0  0  0  0  0  0  0  0
    2.7641   -0.8851   -2.7344 H   0  0  0  0  0  0  0  0  0  0  0  0
  1 10  1  0  0  0  0
  2 13  1  0  0  0  0
  3 15  1  6  0  0  0
  3  4  1  0  0  0  0
  3  8  1  0  0  0  0
  4 12  1  1  0  0  0
  4  5  1  0  0  0  0
  5 16  1  0  0  0  0
  5  6  2  0  0  0  0
  6 17  1  0  0  0  0
  7 18  1  0  0  0  0
  7  6  1  0  0  0  0
  8  9  1  1  0  0  0
  8  7  1  0  0  0  0
  9  1  1  0  0  0  0
  9 19  1  0  0  0  0
 10 21  1  0  0  0  0
 10 22  1  0  0  0  0
 11 24  1  0  0  0  0
 11  1  1  0  0  0  0
 12  2  1  0  0  0  0
 12 27  1  0  0  0  0
 13 30  1  0  0  0  0
 13 29  1  0  0  0  0
 14 34  1  0  0  0  0
 14  2  1  0  0  0  0
 20  9  1  0  0  0  0
 23 10  1  0  0  0  0
 25 11  1  0  0  0  0
 26 11  1  0  0  0  0
 28 12  1  0  0  0  0
 31 13  1  0  0  0  0
 32 14  1  0  0  0  0
 33 14  1  0  0  0  0
 35 15  1  0  0  0  0
 36 15  1  0  0  0  0
 37 15  1  0  0  0  0
M  END
