1,2,4
 OpenBabel05122313063D

 31 33  0  0  1  0  0  0  0  0999 V2000
   -0.3758    1.4454    0.2722 N   0  0  0  0  0  2  0  0  0  0  0  0
    2.1908    1.3785    0.1140 C   0  0  0  0  0  3  0  0  0  0  0  0
   -0.4848    3.6671    0.9910 O   0  0  0  0  0  0  0  0  0  0  0  0
   -0.8835   -0.9543   -0.5376 N   0  0  0  0  0  2  0  0  0  0  0  0
    3.5848    1.2495    0.0293 C   0  0  0  0  0  0  0  0  0  0  0  0
    4.0557    0.3036   -0.2814 H   0  0  0  0  0  0  0  0  0  0  0  0
   -6.0626   -1.4863   -0.0136 O   0  0  0  0  0  0  0  0  0  0  0  0
   -6.6057    0.5181    0.6449 O   0  0  0  0  0  0  0  0  0  0  0  0
   -5.7690   -0.3198    0.2917 N   0  0  0  0  0  0  0  0  0  0  0  0
    4.4107    2.3490    0.3347 C   0  0  0  0  0  0  0  0  0  0  0  0
    5.5048    2.2393    0.2611 H   0  0  0  0  0  0  0  0  0  0  0  0
    3.8581    3.5817    0.7275 C   0  0  0  0  0  0  0  0  0  0  0  0
    4.5169    4.4321    0.9600 H   0  0  0  0  0  0  0  0  0  0  0  0
    2.4672    3.7172    0.8203 C   0  0  0  0  0  0  0  0  0  0  0  0
    1.9866    4.6598    1.1262 H   0  0  0  0  0  0  0  0  0  0  0  0
    1.6459    2.6176    0.5153 C   0  0  0  0  0  0  0  0  0  0  0  0
    0.1644    2.6864    0.6203 C   0  0  0  0  0  0  0  0  0  0  0  0
   -1.6988    1.1169    0.2868 C   0  0  0  0  0  0  0  0  0  0  0  0
   -2.7845    1.9254    0.6845 C   0  0  0  0  0  0  0  0  0  0  0  0
   -2.5870    2.9563    0.9977 H   0  0  0  0  0  0  0  0  0  0  0  0
   -4.0809    1.3997    0.6587 C   0  0  0  0  0  0  0  0  0  0  0  0
   -4.9357    2.0155    0.9690 H   0  0  0  0  0  0  0  0  0  0  0  0
   -4.3647    0.0917    0.2452 C   0  0  0  0  0  0  0  0  0  0  0  0
   -3.3057   -0.7756   -0.1943 C   0  0  0  0  0  0  0  0  0  0  0  0
   -3.4275   -2.1084   -0.6901 C   0  0  0  0  0  0  0  0  0  0  0  0
   -4.4265   -2.5535   -0.7461 H   0  0  0  0  0  0  0  0  0  0  0  0
   -2.2955   -2.8033   -1.0951 C   0  0  0  0  0  0  0  0  0  0  0  0
   -2.3781   -3.8260   -1.4901 H   0  0  0  0  0  0  0  0  0  0  0  0
   -1.0275   -2.1941   -1.0021 C   0  0  0  0  0  0  0  0  0  0  0  0
   -0.1123   -2.7188   -1.3175 H   0  0  0  0  0  0  0  0  0  0  0  0
   -1.9778   -0.2343   -0.1471 C   0  0  1  0  0  3  0  0  0  0  0  0
  1 18  1  0  0  0  0
  1 17  1  0  0  0  0
  2 16  1  0  0  0  0
  5  2  2  0  0  0  0
  5 10  1  0  0  0  0
  6  5  1  0  0  0  0
  7  9  2  0  0  0  0
  9  8  2  0  0  0  0
 10 12  2  0  0  0  0
 11 10  1  0  0  0  0
 12 14  1  0  0  0  0
 12 13  1  0  0  0  0
 14 15  1  0  0  0  0
 16 17  1  0  0  0  0
 16 14  2  0  0  0  0
 17  3  2  0  0  0  0
 18 19  2  0  0  0  0
 19 20  1  0  0  0  0
 21 19  1  0  0  0  0
 21 22  1  0  0  0  0
 23  9  1  0  0  0  0
 23 21  2  0  0  0  0
 24 31  1  0  0  0  0
 24 23  1  0  0  0  0
 25 24  2  0  0  0  0
 26 25  1  0  0  0  0
 27 29  2  0  0  0  0
 27 25  1  0  0  0  0
 28 27  1  0  0  0  0
 29  4  1  0  0  0  0
 30 29  1  0  0  0  0
 31  4  1  6  0  0  0
 31 18  1  0  0  0  0
M  END
