1,2,3
 OpenBabel05122313063D

 61 63  0  0  0  0  0  0  0  0999 V2000
    0.2126    1.9164   -0.2232 N   0  0  0  0  0  2  0  0  0  0  0  0
    0.3718   -2.1702    0.0450 N   0  0  0  0  0  2  0  0  0  0  0  0
   -1.2245   -0.1796   -0.0264 C   0  0  0  0  0  2  0  0  0  0  0  0
   -1.9595    1.0209   -0.1019 C   0  0  0  0  0  0  0  0  0  0  0  0
   -3.3705    0.9616   -0.0644 C   0  0  0  0  0  0  0  0  0  0  0  0
   -4.0416   -0.2785    0.0467 C   0  0  0  0  0  0  0  0  0  0  0  0
   -3.2755   -1.4703    0.1153 C   0  0  0  0  0  0  0  0  0  0  0  0
   -1.8678   -1.4310    0.0766 C   0  0  0  0  0  0  0  0  0  0  0  0
   -5.5796   -0.3767    0.0940 C   0  0  0  0  0  0  0  0  0  0  0  0
   -6.0074   -1.0355    1.4254 C   0  0  0  0  0  0  0  0  0  0  0  0
   -6.0734   -1.2374   -1.0913 C   0  0  0  0  0  0  0  0  0  0  0  0
   -6.2538    1.0030    0.0007 C   0  0  0  0  0  0  0  0  0  0  0  0
   -1.0747    2.1694   -0.2083 C   0  0  0  0  0  3  0  0  0  0  0  0
    1.2391    2.9563   -0.2550 C   0  0  0  0  0  0  0  0  0  0  0  0
    0.7864    4.3243   -0.7773 C   0  0  0  0  0  0  0  0  0  0  0  0
    1.9831    5.2853   -0.8395 C   0  0  0  0  0  0  0  0  0  0  0  0
    2.6646    5.4230    0.5284 C   0  0  0  0  0  0  0  0  0  0  0  0
    3.0708    4.0554    1.0917 C   0  0  0  0  0  0  0  0  0  0  0  0
    1.8886    3.0817    1.1392 C   0  0  0  0  0  0  0  0  0  0  0  0
   -0.8934   -2.5076    0.1198 C   0  0  0  0  0  0  0  0  0  0  0  0
    1.4124   -3.1949    0.0904 C   0  0  0  0  0  0  0  0  0  0  0  0
    2.1972   -3.2122   -1.2347 C   0  0  0  0  0  0  0  0  0  0  0  0
    3.3533   -4.2177   -1.1847 C   0  0  0  0  0  0  0  0  0  0  0  0
    4.2799   -3.9375    0.0050 C   0  0  0  0  0  0  0  0  0  0  0  0
    3.4944   -3.9615    1.3223 C   0  0  0  0  0  0  0  0  0  0  0  0
    2.3395   -2.9539    1.2965 C   0  0  0  0  0  0  0  0  0  0  0  0
   -3.9478    1.8950   -0.1228 H   0  0  0  0  0  0  0  0  0  0  0  0
   -3.7875   -2.4422    0.1975 H   0  0  0  0  0  0  0  0  0  0  0  0
   -5.6651   -0.4350    2.2923 H   0  0  0  0  0  0  0  0  0  0  0  0
   -7.1126   -1.1203    1.4787 H   0  0  0  0  0  0  0  0  0  0  0  0
   -5.5876   -2.0551    1.5354 H   0  0  0  0  0  0  0  0  0  0  0  0
   -5.6573   -2.2639   -1.0587 H   0  0  0  0  0  0  0  0  0  0  0  0
   -7.1796   -1.3237   -1.0732 H   0  0  0  0  0  0  0  0  0  0  0  0
   -5.7783   -0.7848   -2.0595 H   0  0  0  0  0  0  0  0  0  0  0  0
   -6.0076    1.5204   -0.9485 H   0  0  0  0  0  0  0  0  0  0  0  0
   -7.3553    0.8843    0.0379 H   0  0  0  0  0  0  0  0  0  0  0  0
   -5.9627    1.6636    0.8421 H   0  0  0  0  0  0  0  0  0  0  0  0
   -1.4503    3.2073   -0.2673 H   0  0  0  0  0  0  0  0  0  0  0  0
    2.0296    2.5498   -0.9245 H   0  0  0  0  0  0  0  0  0  0  0  0
    0.3162    4.2156   -1.7780 H   0  0  0  0  0  0  0  0  0  0  0  0
    0.0164    4.7572   -0.0993 H   0  0  0  0  0  0  0  0  0  0  0  0
    2.7182    4.8987   -1.5797 H   0  0  0  0  0  0  0  0  0  0  0  0
    1.6527    6.2764   -1.2142 H   0  0  0  0  0  0  0  0  0  0  0  0
    3.5483    6.0904    0.4514 H   0  0  0  0  0  0  0  0  0  0  0  0
    1.9606    5.9168    1.2363 H   0  0  0  0  0  0  0  0  0  0  0  0
    3.8652    3.6067    0.4555 H   0  0  0  0  0  0  0  0  0  0  0  0
    3.5080    4.1651    2.1058 H   0  0  0  0  0  0  0  0  0  0  0  0
    1.1159    3.4350    1.8591 H   0  0  0  0  0  0  0  0  0  0  0  0
    2.2254    2.0756    1.4588 H   0  0  0  0  0  0  0  0  0  0  0  0
   -1.1752   -3.5756    0.2127 H   0  0  0  0  0  0  0  0  0  0  0  0
    0.9124   -4.1863    0.2197 H   0  0  0  0  0  0  0  0  0  0  0  0
    1.4998   -3.4433   -2.0672 H   0  0  0  0  0  0  0  0  0  0  0  0
    2.5946   -2.1884   -1.4025 H   0  0  0  0  0  0  0  0  0  0  0  0
    2.9521   -5.2543   -1.1029 H   0  0  0  0  0  0  0  0  0  0  0  0
    3.9186   -4.1770   -2.1389 H   0  0  0  0  0  0  0  0  0  0  0  0
    5.1103   -4.6737    0.0337 H   0  0  0  0  0  0  0  0  0  0  0  0
    4.7380   -2.9325   -0.1236 H   0  0  0  0  0  0  0  0  0  0  0  0
    3.0984   -4.9885    1.4965 H   0  0  0  0  0  0  0  0  0  0  0  0
    4.1616   -3.7355    2.1800 H   0  0  0  0  0  0  0  0  0  0  0  0
    2.7415   -1.9216    1.2092 H   0  0  0  0  0  0  0  0  0  0  0  0
    1.7420   -3.0042    2.2311 H   0  0  0  0  0  0  0  0  0  0  0  0
  1 13  1  0  0  0  0
  2 21  1  0  0  0  0
  2 20  1  0  0  0  0
  3  8  1  0  0  0  0
  4  5  2  0  0  0  0
  4  3  1  0  0  0  0
  5  6  1  0  0  0  0
  6  9  1  0  0  0  0
  6  7  2  0  0  0  0
  7 28  1  0  0  0  0
  8  7  1  0  0  0  0
  8 20  2  0  0  0  0
  9 10  1  0  0  0  0
 10 30  1  0  0  0  0
 10 31  1  0  0  0  0
 10 29  1  0  0  0  0
 11 33  1  0  0  0  0
 11 32  1  0  0  0  0
 11  9  1  0  0  0  0
 12 36  1  0  0  0  0
 12  9  1  0  0  0  0
 12 37  1  0  0  0  0
 13  4  1  0  0  0  0
 14  1  1  0  0  0  0
 14 19  1  0  0  0  0
 15 14  1  0  0  0  0
 15 41  1  0  0  0  0
 16 15  1  0  0  0  0
 16 17  1  0  0  0  0
 17 18  1  0  0  0  0
 17 45  1  0  0  0  0
 18 19  1  0  0  0  0
 18 47  1  0  0  0  0
 19 49  1  0  0  0  0
 19 48  1  0  0  0  0
 20 50  1  0  0  0  0
 21 51  1  0  0  0  0
 21 26  1  0  0  0  0
 22 23  1  0  0  0  0
 22 21  1  0  0  0  0
 23 54  1  0  0  0  0
 23 24  1  0  0  0  0
 24 56  1  0  0  0  0
 24 25  1  0  0  0  0
 25 58  1  0  0  0  0
 25 59  1  0  0  0  0
 26 25  1  0  0  0  0
 26 61  1  0  0  0  0
 27  5  1  0  0  0  0
 34 11  1  0  0  0  0
 35 12  1  0  0  0  0
 38 13  1  0  0  0  0
 39 14  1  0  0  0  0
 40 15  1  0  0  0  0
 42 16  1  0  0  0  0
 43 16  1  0  0  0  0
 44 17  1  0  0  0  0
 46 18  1  0  0  0  0
 52 22  1  0  0  0  0
 53 22  1  0  0  0  0
 55 23  1  0  0  0  0
 57 24  1  0  0  0  0
 60 26  1  0  0  0  0
M  END
