1,2,3
 OpenBabel05122313063D

 19 19  0  0  0  0  0  0  0  0999 V2000
    0.7789    0.0008   -1.8958 N   0  0  0  0  0  2  0  0  0  0  0  0
    1.5159    0.0008    0.6165 N   0  0  0  0  0  2  0  0  0  0  0  0
   -1.7588   -0.0013   -1.6080 C   0  0  0  0  0  2  0  0  0  0  0  0
   -2.8580   -0.0026   -1.4546 H   0  0  0  0  0  0  0  0  0  0  0  0
   -1.3093   -0.0006   -2.9162 C   0  0  0  0  0  0  0  0  0  0  0  0
   -1.9590   -0.0011   -3.8097 H   0  0  0  0  0  0  0  0  0  0  0  0
    0.1249    0.0006   -3.0509 C   0  0  0  0  0  0  0  0  0  0  0  0
    0.6747    0.0010   -4.0102 H   0  0  0  0  0  0  0  0  0  0  0  0
    2.1296    0.0015   -1.6817 C   0  0  0  0  0  0  0  0  0  0  0  0
    2.8395    0.0019   -2.5244 H   0  0  0  0  0  0  0  0  0  0  0  0
    2.5419    0.0014   -0.3368 C   0  0  0  0  0  0  0  0  0  0  0  0
    3.9076    0.0019    0.1021 C   0  0  0  0  0  0  0  0  0  0  0  0
    4.7032    0.0023   -0.6574 H   0  0  0  0  0  0  0  0  0  0  0  0
    4.2091    0.0019    1.4561 C   0  0  0  0  0  0  0  0  0  0  0  0
    5.2597    0.0023    1.7866 H   0  0  0  0  0  0  0  0  0  0  0  0
    3.1599    0.0015    2.4064 C   0  0  0  0  0  0  0  0  0  0  0  0
    3.3496    0.0016    3.4879 H   0  0  0  0  0  0  0  0  0  0  0  0
    1.8472    0.0010    1.9197 C   0  0  0  0  0  0  0  0  0  0  0  0
    1.0026    0.0007    2.6252 H   0  0  0  0  0  0  0  0  0  0  0  0
  1  9  1  0  0  0  0
  2 18  1  0  0  0  0
  3  4  1  0  0  0  0
  5  3  1  0  0  0  0
  6  5  1  0  0  0  0
  7  5  2  0  0  0  0
  7  1  1  0  0  0  0
  8  7  1  0  0  0  0
  9 11  2  0  0  0  0
 10  9  1  0  0  0  0
 11 12  1  0  0  0  0
 11  2  1  0  0  0  0
 12 14  2  0  0  0  0
 13 12  1  0  0  0  0
 14 15  1  0  0  0  0
 14 16  1  0  0  0  0
 16 17  1  0  0  0  0
 18 16  2  0  0  0  0
 18 19  1  0  0  0  0
M  END
