2,3,4
 OpenBabel05122313063D

 41 41  0  0  1  0  0  0  0  0999 V2000
   -4.6608    0.3801   -1.3838 O   0  0  0  0  0  0  0  0  0  0  0  0
    0.0833   -2.0953    0.4031 N   0  0  0  0  0  0  0  0  0  0  0  0
    0.3685    2.1658    0.0955 N   0  0  0  0  0  0  0  0  0  0  0  0
   -1.4671    0.2407    1.3534 C   0  0  2  0  0  3  0  0  0  0  0  0
   -1.8682    1.4536    0.6445 C   0  0  0  0  0  0  0  0  0  0  0  0
   -2.9168    1.4609   -0.2618 C   0  0  0  0  0  0  0  0  0  0  0  0
   -3.6098    0.2581   -0.5736 C   0  0  0  0  0  0  0  0  0  0  0  0
   -3.0790   -0.9754   -0.1157 C   0  0  0  0  0  0  0  0  0  0  0  0
   -2.0225   -0.9839    0.7956 C   0  0  1  0  0  3  0  0  0  0  0  0
   -1.0794    0.3121    2.8286 C   0  0  0  0  0  0  0  0  0  0  0  0
   -1.2533   -2.2428    1.1048 C   0  0  0  0  0  0  0  0  0  0  0  0
   -0.0014   -2.6752   -0.9661 C   0  0  0  0  0  0  0  0  0  0  0  0
    1.1487   -2.7797    1.1837 C   0  0  0  0  0  0  0  0  0  0  0  0
   -0.9154    2.6108    0.7752 C   0  0  0  0  0  0  0  0  0  0  0  0
    1.5367    2.8042    0.7600 C   0  0  0  0  0  0  0  0  0  0  0  0
    0.3291    2.5449   -1.3447 C   0  0  0  0  0  0  0  0  0  0  0  0
   -5.3949   -0.7820   -1.7821 C   0  0  0  0  0  0  0  0  0  0  0  0
   -3.2114    2.3799   -0.7897 H   0  0  0  0  0  0  0  0  0  0  0  0
   -3.4612   -1.9290   -0.5048 H   0  0  0  0  0  0  0  0  0  0  0  0
   -1.9972    0.4253    3.4452 H   0  0  0  0  0  0  0  0  0  0  0  0
   -0.4164    1.1668    3.0523 H   0  0  0  0  0  0  0  0  0  0  0  0
   -0.5505   -0.5942    3.1737 H   0  0  0  0  0  0  0  0  0  0  0  0
   -1.7609   -3.1632    0.7540 H   0  0  0  0  0  0  0  0  0  0  0  0
   -1.0651   -2.3518    2.1887 H   0  0  0  0  0  0  0  0  0  0  0  0
    0.9533   -2.4932   -1.4915 H   0  0  0  0  0  0  0  0  0  0  0  0
   -0.8155   -2.1794   -1.5258 H   0  0  0  0  0  0  0  0  0  0  0  0
   -0.1990   -3.7666   -0.8990 H   0  0  0  0  0  0  0  0  0  0  0  0
    0.8847   -3.8506    1.3154 H   0  0  0  0  0  0  0  0  0  0  0  0
    1.2527   -2.2938    2.1708 H   0  0  0  0  0  0  0  0  0  0  0  0
    2.1071   -2.6885    0.6424 H   0  0  0  0  0  0  0  0  0  0  0  0
   -0.6837    2.8383    1.8318 H   0  0  0  0  0  0  0  0  0  0  0  0
   -1.2870    3.5397    0.2992 H   0  0  0  0  0  0  0  0  0  0  0  0
    1.6000    2.4579    1.8076 H   0  0  0  0  0  0  0  0  0  0  0  0
    1.4216    3.9087    0.7337 H   0  0  0  0  0  0  0  0  0  0  0  0
    2.4601    2.5061    0.2326 H   0  0  0  0  0  0  0  0  0  0  0  0
   -0.5629    2.0968   -1.8193 H   0  0  0  0  0  0  0  0  0  0  0  0
    1.2340    2.1533   -1.8427 H   0  0  0  0  0  0  0  0  0  0  0  0
    0.2894    3.6512   -1.4393 H   0  0  0  0  0  0  0  0  0  0  0  0
   -4.7672   -1.4550   -2.4032 H   0  0  0  0  0  0  0  0  0  0  0  0
   -6.2423   -0.4134   -2.3856 H   0  0  0  0  0  0  0  0  0  0  0  0
   -5.7790   -1.3321   -0.8982 H   0  0  0  0  0  0  0  0  0  0  0  0
  1  7  1  0  0  0  0
  2 11  1  0  0  0  0
  2 13  1  0  0  0  0
  3 15  1  0  0  0  0
  3 14  1  0  0  0  0
  4 10  1  1  0  0  0
  5 14  1  0  0  0  0
  5  4  1  0  0  0  0
  6  5  2  0  0  0  0
  7  6  1  0  0  0  0
  7  8  2  0  0  0  0
  8  9  1  0  0  0  0
  9 11  1  6  0  0  0
  9  4  1  0  0  0  0
 10 21  1  0  0  0  0
 10 22  1  0  0  0  0
 10 20  1  0  0  0  0
 11 24  1  0  0  0  0
 12 27  1  0  0  0  0
 12  2  1  0  0  0  0
 13 28  1  0  0  0  0
 13 29  1  0  0  0  0
 14 31  1  0  0  0  0
 15 33  1  0  0  0  0
 16  3  1  0  0  0  0
 17  1  1  0  0  0  0
 17 41  1  0  0  0  0
 18  6  1  0  0  0  0
 19  8  1  0  0  0  0
 23 11  1  0  0  0  0
 25 12  1  0  0  0  0
 26 12  1  0  0  0  0
 30 13  1  0  0  0  0
 32 14  1  0  0  0  0
 34 15  1  0  0  0  0
 35 15  1  0  0  0  0
 36 16  1  0  0  0  0
 37 16  1  0  0  0  0
 38 16  1  0  0  0  0
 39 17  1  0  0  0  0
 40 17  1  0  0  0  0
M  END
