2,5,8
 OpenBabel05122313063D

 58 63  0  0  0  0  0  0  0  0999 V2000
   -2.9659    0.6122    0.0759 C   0  0  0  0  0  0  0  0  0  0  0  0
   -0.5221    0.5011   -0.0774 N   0  0  0  0  0  2  0  0  0  0  0  0
    0.8441    2.5536   -0.0306 C   0  0  0  0  0  0  0  0  0  0  0  0
   -4.1720   -0.1490    0.4043 C   0  0  0  0  0  3  0  0  0  0  0  0
    2.4247    0.6757    0.1055 N   0  0  0  0  0  2  0  0  0  0  0  0
   -4.4005    3.8819   -0.6741 O   0  0  0  0  0  0  0  0  0  0  0  0
   -0.4307    1.8697   -0.1045 C   0  0  0  0  0  0  0  0  0  0  0  0
   -0.4796   -2.1369   -0.4978 C   0  0  0  0  0  3  0  0  0  0  0  0
   -1.6431    2.6540   -0.2521 C   0  0  0  0  0  0  0  0  0  0  0  0
   -1.7375   -1.5379   -0.1944 C   0  0  0  0  0  0  0  0  0  0  0  0
   -4.1796    2.6787   -0.6381 C   0  0  0  0  0  0  0  0  0  0  0  0
   -4.9463    1.9534   -1.0308 H   0  0  0  0  0  0  0  0  0  0  0  0
   -2.9247    1.9972   -0.1996 C   0  0  0  0  0  0  0  0  0  0  0  0
    3.7352    0.1783    0.4082 C   0  0  0  0  0  0  0  0  0  0  0  0
   -1.7373   -0.1100   -0.0236 C   0  0  0  0  0  0  0  0  0  0  0  0
   -6.5188   -1.6120    0.9964 C   0  0  0  0  0  0  0  0  0  0  0  0
   -7.4309   -2.1866    1.2173 H   0  0  0  0  0  0  0  0  0  0  0  0
   -1.6596   -4.2496   -0.7603 C   0  0  0  0  0  0  0  0  0  0  0  0
   -1.6304   -5.3258   -0.9940 H   0  0  0  0  0  0  0  0  0  0  0  0
    2.1610    1.9393    0.2947 C   0  0  0  0  0  0  0  0  0  0  0  0
   -2.9543   -2.2758   -0.1504 C   0  0  0  0  0  0  0  0  0  0  0  0
   -4.1822   -1.5757    0.2459 C   0  0  0  0  0  0  0  0  0  0  0  0
    4.7203    0.2077   -0.6052 C   0  0  0  0  0  0  0  0  0  0  0  0
    5.9926   -0.3053   -0.2962 C   0  0  0  0  0  0  0  0  0  0  0  0
    6.7704   -0.2964   -1.0756 H   0  0  0  0  0  0  0  0  0  0  0  0
   -5.3185    0.4887    0.9466 C   0  0  0  0  0  0  0  0  0  0  0  0
   -5.2708    1.5567    1.2042 H   0  0  0  0  0  0  0  0  0  0  0  0
   -5.3794   -2.2723    0.5318 C   0  0  0  0  0  0  0  0  0  0  0  0
   -5.4073   -3.3640    0.4127 H   0  0  0  0  0  0  0  0  0  0  0  0
   -2.8882   -3.6547   -0.4476 C   0  0  0  0  0  0  0  0  0  0  0  0
   -3.7981   -4.2707   -0.4430 H   0  0  0  0  0  0  0  0  0  0  0  0
    3.2235    2.8577    0.8643 C   0  0  0  0  0  0  0  0  0  0  0  0
    3.7385    3.4169    0.0548 H   0  0  0  0  0  0  0  0  0  0  0  0
    3.9980    2.2690    1.3863 H   0  0  0  0  0  0  0  0  0  0  0  0
    2.7889    3.5969    1.5619 H   0  0  0  0  0  0  0  0  0  0  0  0
    3.9786   -0.3812    1.6841 C   0  0  0  0  0  0  0  0  0  0  0  0
   -0.4592   -3.5083   -0.7832 C   0  0  0  0  0  0  0  0  0  0  0  0
    0.4970   -3.9925   -1.0281 H   0  0  0  0  0  0  0  0  0  0  0  0
    5.2674   -0.8796    1.9461 C   0  0  0  0  0  0  0  0  0  0  0  0
    5.4755   -1.3166    2.9352 H   0  0  0  0  0  0  0  0  0  0  0  0
    6.2711   -0.8380    0.9692 C   0  0  0  0  0  0  0  0  0  0  0  0
    7.2721   -1.2372    1.1910 H   0  0  0  0  0  0  0  0  0  0  0  0
   -6.4839   -0.2247    1.2286 C   0  0  0  0  0  0  0  0  0  0  0  0
   -7.3563    0.2928    1.6536 H   0  0  0  0  0  0  0  0  0  0  0  0
   -0.3187    4.6891   -0.4700 C   0  0  0  0  0  0  0  0  0  0  0  0
   -0.2499    5.7736   -0.6382 H   0  0  0  0  0  0  0  0  0  0  0  0
    0.8503    3.9442   -0.2289 C   0  0  0  0  0  3  0  0  0  0  0  0
    1.8069    4.4804   -0.2062 H   0  0  0  0  0  0  0  0  0  0  0  0
   -1.5512    4.0605   -0.4577 C   0  0  0  0  0  0  0  0  0  0  0  0
   -2.4847    4.6226   -0.5833 H   0  0  0  0  0  0  0  0  0  0  0  0
    4.3797    0.7059   -1.9835 C   0  0  0  0  0  0  0  0  0  0  0  0
    3.5915    0.0582   -2.4237 H   0  0  0  0  0  0  0  0  0  0  0  0
    5.2643    0.6801   -2.6473 H   0  0  0  0  0  0  0  0  0  0  0  0
    3.9844    1.7431   -1.9798 H   0  0  0  0  0  0  0  0  0  0  0  0
    2.8775   -0.4521    2.7074 C   0  0  0  0  0  0  0  0  0  0  0  0
    2.4809    0.5518    2.9697 H   0  0  0  0  0  0  0  0  0  0  0  0
    3.2271   -0.9350    3.6391 H   0  0  0  0  0  0  0  0  0  0  0  0
    2.0184   -1.0360    2.3090 H   0  0  0  0  0  0  0  0  0  0  0  0
  1  4  1  0  0  0  0
  2 15  1  0  0  0  0
  3 20  2  0  0  0  0
  4 26  1  0  0  0  0
  5 20  1  0  0  0  0
  5 14  1  0  0  0  0
  6 11  2  0  0  0  0
  7  2  1  0  0  0  0
  7  3  1  0  0  0  0
  8 10  1  0  0  0  0
  9 13  1  0  0  0  0
  9  7  2  0  0  0  0
 10 21  1  0  0  0  0
 10 15  2  0  0  0  0
 11 13  1  0  0  0  0
 12 11  1  0  0  0  0
 13  1  2  0  0  0  0
 14 36  1  0  0  0  0
 15  1  1  0  0  0  0
 16 17  1  0  0  0  0
 16 43  1  0  0  0  0
 18 30  2  0  0  0  0
 19 18  1  0  0  0  0
 20 32  1  0  0  0  0
 21 22  2  0  0  0  0
 22  4  1  0  0  0  0
 22 28  1  0  0  0  0
 23 24  1  0  0  0  0
 23 14  2  0  0  0  0
 24 41  2  0  0  0  0
 25 24  1  0  0  0  0
 26 27  1  0  0  0  0
 26 43  2  0  0  0  0
 28 16  2  0  0  0  0
 29 28  1  0  0  0  0
 30 31  1  0  0  0  0
 30 21  1  0  0  0  0
 32 34  1  0  0  0  0
 32 35  1  0  0  0  0
 33 32  1  0  0  0  0
 36 39  2  0  0  0  0
 36 55  1  0  0  0  0
 37 18  1  0  0  0  0
 37  8  2  0  0  0  0
 38 37  1  0  0  0  0
 39 40  1  0  0  0  0
 41 42  1  0  0  0  0
 41 39  1  0  0  0  0
 43 44  1  0  0  0  0
 45 49  2  0  0  0  0
 45 47  1  0  0  0  0
 46 45  1  0  0  0  0
 47 48  1  0  0  0  0
 47  3  1  0  0  0  0
 49  9  1  0  0  0  0
 50 49  1  0  0  0  0
 51 54  1  0  0  0  0
 51 23  1  0  0  0  0
 52 51  1  0  0  0  0
 53 51  1  0  0  0  0
 55 56  1  0  0  0  0
 55 57  1  0  0  0  0
 58 55  1  0  0  0  0
M  END
