4,7,22
 OpenBabel05122313063D

 35 37  0  0  1  0  0  0  0  0999 V2000
    3.3845   -3.2943   -0.5266 O   0  0  0  0  0  0  0  0  0  0  0  0
   -1.4659   -2.2327   -0.1394 C   0  0  0  0  0  0  0  0  0  0  0  0
    2.4018   -2.5643   -0.3874 C   0  0  0  0  0  0  0  0  0  0  0  0
    2.0495    1.4191    0.2088 N   0  0  0  0  0  2  0  0  0  0  0  0
    2.8008    3.6729    0.5984 C   0  0  0  0  0  0  0  0  0  0  0  0
    2.5289    4.7230    0.7779 H   0  0  0  0  0  0  0  0  0  0  0  0
   -0.0930   -2.0380   -0.6808 C   0  0  0  0  0  3  0  0  0  0  0  0
   -0.1441   -1.9351   -1.7869 H   0  0  0  0  0  0  0  0  0  0  0  0
   -1.7112   -2.6185    1.2026 C   0  0  0  0  0  0  0  0  0  0  0  0
   -0.8572   -2.8218    1.8676 H   0  0  0  0  0  0  0  0  0  0  0  0
   -3.0143   -2.7311    1.7068 C   0  0  0  0  0  0  0  0  0  0  0  0
   -3.1664   -3.0376    2.7538 H   0  0  0  0  0  0  0  0  0  0  0  0
   -4.1226   -2.4550    0.8882 C   0  0  0  0  0  0  0  0  0  0  0  0
   -5.1462   -2.5478    1.2831 H   0  0  0  0  0  0  0  0  0  0  0  0
   -3.9033   -2.0739   -0.4466 C   0  0  0  0  0  0  0  0  0  0  0  0
   -4.7593   -1.8615   -1.1071 H   0  0  0  0  0  0  0  0  0  0  0  0
   -2.5999   -1.9731   -0.9496 C   0  0  0  0  0  0  0  0  0  0  0  0
   -2.4412   -1.6782   -1.9992 H   0  0  0  0  0  0  0  0  0  0  0  0
    0.9662   -3.0853   -0.3078 C   0  0  0  0  0  0  0  0  0  0  0  0
    0.8334   -3.4203    0.7442 H   0  0  0  0  0  0  0  0  0  0  0  0
    0.8894   -4.0068   -0.9239 H   0  0  0  0  0  0  0  0  0  0  0  0
    2.4387   -1.1869   -0.2222 N   0  0  0  0  0  2  0  0  0  0  0  0
    3.5808   -0.4179   -0.0996 C   0  0  0  0  0  0  0  0  0  0  0  0
    3.3538    0.9893    0.1400 C   0  0  2  0  0  3  0  0  0  0  0  0
    1.7804    2.7062    0.4294 C   0  0  0  0  0  0  0  0  0  0  0  0
    0.7145    2.9813    0.4762 H   0  0  0  0  0  0  0  0  0  0  0  0
    4.1274    3.2705    0.5360 C   0  0  0  0  0  0  0  0  0  0  0  0
    4.9439    3.9984    0.6650 H   0  0  0  0  0  0  0  0  0  0  0  0
    4.4516    1.9033    0.3039 C   0  0  0  0  0  0  0  0  0  0  0  0
    5.7805    1.4045    0.2261 C   0  0  0  0  0  0  0  0  0  0  0  0
    6.6254    2.0986    0.3470 H   0  0  0  0  0  0  0  0  0  0  0  0
    5.9848    0.0467   -0.0048 C   0  0  0  0  0  0  0  0  0  0  0  0
    7.0136   -0.3414   -0.0665 H   0  0  0  0  0  0  0  0  0  0  0  0
    4.9161   -0.8638   -0.1682 C   0  0  0  0  0  0  0  0  0  0  0  0
    5.0915   -1.9304   -0.3501 H   0  0  0  0  0  0  0  0  0  0  0  0
  1  3  2  0  0  0  0
  2  9  1  0  0  0  0
  3 19  1  0  0  0  0
  3 22  1  0  0  0  0
  4 25  1  0  0  0  0
  5  6  1  0  0  0  0
  7 19  1  0  0  0  0
  7  2  1  0  0  0  0
  8  7  1  0  0  0  0
  9 11  2  0  0  0  0
  9 10  1  0  0  0  0
 11 12  1  0  0  0  0
 13 14  1  0  0  0  0
 13 11  1  0  0  0  0
 15 13  2  0  0  0  0
 16 15  1  0  0  0  0
 17 15  1  0  0  0  0
 17  2  2  0  0  0  0
 18 17  1  0  0  0  0
 19 20  1  0  0  0  0
 21 19  1  0  0  0  0
 22 23  1  0  0  0  0
 24 23  1  1  0  0  0
 24  4  1  0  0  0  0
 24 29  1  0  0  0  0
 25 26  1  0  0  0  0
 25  5  2  0  0  0  0
 27  5  1  0  0  0  0
 27 28  1  0  0  0  0
 29 27  2  0  0  0  0
 30 29  1  0  0  0  0
 30 31  1  0  0  0  0
 32 30  2  0  0  0  0
 33 32  1  0  0  0  0
 34 23  2  0  0  0  0
 34 32  1  0  0  0  0
 35 34  1  0  0  0  0
M  END
