1,3,5
 OpenBabel05122313063D

 55 59  0  0  1  0  0  0  0  0999 V2000
    2.0606   -0.6080   -0.0001 N   0  0  0  0  0  2  0  0  0  0  0  0
    3.6646    0.9676   -0.0002 N   0  0  0  0  0  0  0  0  0  0  0  0
   -1.9882   -0.7777   -0.0006 N   0  0  0  0  0  2  0  0  0  0  0  0
   -3.7195    0.6568    0.0001 N   0  0  0  0  0  0  0  0  0  0  0  0
   -0.0286    0.8701   -0.0005 C   0  0  0  0  0  2  0  0  0  0  0  0
    1.1672    1.6239   -0.0003 C   0  0  0  0  0  0  0  0  0  0  0  0
    1.1000    3.0361   -0.0001 C   0  0  0  0  0  0  0  0  0  0  0  0
    2.0198    3.6314    0.0002 H   0  0  0  0  0  0  0  0  0  0  0  0
   -0.1450    3.6999   -0.0001 C   0  0  0  0  0  0  0  0  0  0  0  0
   -1.3332    2.9305   -0.0003 C   0  0  0  0  0  0  0  0  0  0  0  0
   -2.2984    3.4545   -0.0003 H   0  0  0  0  0  0  0  0  0  0  0  0
   -1.2863    1.5217   -0.0005 C   0  0  0  0  0  0  0  0  0  0  0  0
   -0.2529    5.2377    0.0002 C   0  0  0  0  0  0  0  0  0  0  0  0
    1.1271    5.9182    0.0001 C   0  0  0  0  0  0  0  0  0  0  0  0
    1.7192    5.6515    0.8989 H   0  0  0  0  0  0  0  0  0  0  0  0
    1.0023    7.0195    0.0003 H   0  0  0  0  0  0  0  0  0  0  0  0
    1.7189    5.6517   -0.8989 H   0  0  0  0  0  0  0  0  0  0  0  0
   -1.0172    5.6965    1.2631 C   0  0  0  0  0  0  0  0  0  0  0  0
   -2.0413    5.2743    1.3014 H   0  0  0  0  0  0  0  0  0  0  0  0
   -1.1101    6.8022    1.2818 H   0  0  0  0  0  0  0  0  0  0  0  0
   -0.4881    5.3783    2.1839 H   0  0  0  0  0  0  0  0  0  0  0  0
   -1.0176    5.6970   -1.2623 C   0  0  0  0  0  0  0  0  0  0  0  0
   -2.0417    5.2749   -1.3004 H   0  0  0  0  0  0  0  0  0  0  0  0
   -0.4889    5.3791   -2.1834 H   0  0  0  0  0  0  0  0  0  0  0  0
   -1.1104    6.8027   -1.2805 H   0  0  0  0  0  0  0  0  0  0  0  0
    2.3108    0.7247   -0.0003 C   0  0  2  0  0  3  0  0  0  0  0  0
    3.2829   -1.2574    0.0002 C   0  0  0  0  0  0  0  0  0  0  0  0
    3.6047   -2.6275    0.0004 C   0  0  0  0  0  0  0  0  0  0  0  0
    2.7933   -3.3717    0.0004 H   0  0  0  0  0  0  0  0  0  0  0  0
    4.9611   -2.9673    0.0007 C   0  0  0  0  0  0  0  0  0  0  0  0
    5.2474   -4.0296    0.0009 H   0  0  0  0  0  0  0  0  0  0  0  0
    5.9778   -1.9809    0.0008 C   0  0  0  0  0  0  0  0  0  0  0  0
    7.0330   -2.2926    0.0010 H   0  0  0  0  0  0  0  0  0  0  0  0
    5.6717   -0.6138    0.0006 C   0  0  0  0  0  0  0  0  0  0  0  0
    6.4677    0.1450    0.0007 H   0  0  0  0  0  0  0  0  0  0  0  0
    4.3114   -0.2685    0.0002 C   0  0  0  0  0  0  0  0  0  0  0  0
    4.3099    2.2650   -0.0004 C   0  0  0  0  0  0  0  0  0  0  0  0
    4.0367    2.8466    0.9027 H   0  0  0  0  0  0  0  0  0  0  0  0
    4.0334    2.8476   -0.9019 H   0  0  0  0  0  0  0  0  0  0  0  0
    5.4045    2.1201   -0.0026 H   0  0  0  0  0  0  0  0  0  0  0  0
   -2.3501    0.5287   -0.0004 C   0  0  0  0  0  0  0  0  0  0  0  0
   -3.1514   -1.5278   -0.0001 C   0  0  0  0  0  0  0  0  0  0  0  0
   -3.3557   -2.9203   -0.0001 C   0  0  0  0  0  0  0  0  0  0  0  0
   -2.4836   -3.5925   -0.0004 H   0  0  0  0  0  0  0  0  0  0  0  0
   -4.6783   -3.3736    0.0003 C   0  0  0  0  0  0  0  0  0  0  0  0
   -4.8738   -4.4563    0.0003 H   0  0  0  0  0  0  0  0  0  0  0  0
   -5.7749   -2.4768    0.0007 C   0  0  0  0  0  0  0  0  0  0  0  0
   -6.7999   -2.8767    0.0011 H   0  0  0  0  0  0  0  0  0  0  0  0
   -5.5860   -1.0886    0.0007 C   0  0  0  0  0  0  0  0  0  0  0  0
   -6.4434   -0.4000    0.0011 H   0  0  0  0  0  0  0  0  0  0  0  0
   -4.2597   -0.6293    0.0003 C   0  0  0  0  0  0  0  0  0  0  0  0
   -4.4713    1.8955    0.0003 C   0  0  0  0  0  0  0  0  0  0  0  0
   -4.2461    2.4983    0.9028 H   0  0  0  0  0  0  0  0  0  0  0  0
   -5.5500    1.6594    0.0004 H   0  0  0  0  0  0  0  0  0  0  0  0
   -4.2463    2.4984   -0.9022 H   0  0  0  0  0  0  0  0  0  0  0  0
  1 27  1  0  0  0  0
  2 36  1  0  0  0  0
  3 41  1  0  0  0  0
  3 42  1  0  0  0  0
  4 52  1  0  0  0  0
  4 51  1  0  0  0  0
  5 12  1  0  0  0  0
  5  6  1  0  0  0  0
  6  7  2  0  0  0  0
  7  8  1  0  0  0  0
  9  7  1  0  0  0  0
  9 13  1  0  0  0  0
 10 11  1  0  0  0  0
 10  9  2  0  0  0  0
 12 41  2  0  0  0  0
 12 10  1  0  0  0  0
 13 18  1  0  0  0  0
 14 13  1  0  0  0  0
 14 16  1  0  0  0  0
 14 15  1  0  0  0  0
 17 14  1  0  0  0  0
 18 20  1  0  0  0  0
 18 19  1  0  0  0  0
 18 21  1  0  0  0  0
 22 13  1  0  0  0  0
 23 22  1  0  0  0  0
 24 22  1  0  0  0  0
 25 22  1  0  0  0  0
 26  6  1  1  0  0  0
 26  2  1  0  0  0  0
 26  1  1  0  0  0  0
 27 36  2  0  0  0  0
 27 28  1  0  0  0  0
 28 30  2  0  0  0  0
 29 28  1  0  0  0  0
 30 32  1  0  0  0  0
 30 31  1  0  0  0  0
 32 33  1  0  0  0  0
 34 35  1  0  0  0  0
 34 32  2  0  0  0  0
 36 34  1  0  0  0  0
 37  2  1  0  0  0  0
 37 38  1  0  0  0  0
 39 37  1  0  0  0  0
 40 37  1  0  0  0  0
 41  4  1  0  0  0  0
 42 51  1  0  0  0  0
 43 42  2  0  0  0  0
 43 45  1  0  0  0  0
 44 43  1  0  0  0  0
 45 46  1  0  0  0  0
 45 47  2  0  0  0  0
 47 49  1  0  0  0  0
 47 48  1  0  0  0  0
 49 50  1  0  0  0  0
 51 49  2  0  0  0  0
 52 54  1  0  0  0  0
 52 53  1  0  0  0  0
 55 52  1  0  0  0  0
M  END
