1,8,51
 OpenBabel05122313063D

 59 64  0  0  1  0  0  0  0  0999 V2000
   -0.5740   -0.0116   -0.0852 N   0  0  0  0  0  2  0  0  0  0  0  0
    0.0492   -1.2217    0.0196 C   0  0  1  0  0  3  0  0  0  0  0  0
    1.4693   -1.2482   -0.0735 C   0  0  0  0  0  0  0  0  0  0  0  0
    2.1779   -0.0216   -0.0291 C   0  0  0  0  0  0  0  0  0  0  0  0
    1.4792    1.2171   -0.0229 C   0  0  0  0  0  0  0  0  0  0  0  0
    0.0721    1.1790   -0.1689 C   0  0  0  0  0  0  0  0  0  0  0  0
   -0.8176    2.3362   -0.4638 C   0  0  2  0  0  3  0  0  0  0  0  0
   -2.1521    2.0844   -0.3491 N   0  0  0  0  0  2  0  0  0  0  0  0
   -3.0525    3.0353   -0.6318 C   0  0  0  0  0  0  0  0  0  0  0  0
   -4.1079    2.7443   -0.5165 H   0  0  0  0  0  0  0  0  0  0  0  0
   -2.6822    4.3149   -1.0605 C   0  0  0  0  0  0  0  0  0  0  0  0
   -3.4510    5.0700   -1.2774 H   0  0  0  0  0  0  0  0  0  0  0  0
   -1.3167    4.5862   -1.2243 C   0  0  0  0  0  0  0  0  0  0  0  0
   -0.9782    5.5672   -1.5894 H   0  0  0  0  0  0  0  0  0  0  0  0
   -0.3767    3.5926   -0.9289 C   0  0  0  0  0  0  0  0  0  0  0  0
    0.6916    3.7860   -1.0730 H   0  0  0  0  0  0  0  0  0  0  0  0
    2.2038    2.4975    0.2029 C   0  0  0  0  0  0  0  0  0  0  0  0
    1.8893    3.2624    1.3479 C   0  0  0  0  0  0  0  0  0  0  0  0
    1.1101    2.8984    2.0358 H   0  0  0  0  0  0  0  0  0  0  0  0
    2.5582    4.4675    1.6023 C   0  0  0  0  0  0  0  0  0  0  0  0
    2.3061    5.0522    2.5000 H   0  0  0  0  0  0  0  0  0  0  0  0
    3.5476    4.9255    0.7168 C   0  0  0  0  0  0  0  0  0  0  0  0
    4.0724    5.8720    0.9163 H   0  0  0  0  0  0  0  0  0  0  0  0
    3.8691    4.1682   -0.4215 C   0  0  0  0  0  0  0  0  0  0  0  0
    4.6461    4.5199   -1.1169 H   0  0  0  0  0  0  0  0  0  0  0  0
    3.2061    2.9593   -0.6760 C   0  0  0  0  0  0  0  0  0  0  0  0
    3.4615    2.3648   -1.5650 H   0  0  0  0  0  0  0  0  0  0  0  0
    3.6711   -0.0278    0.0236 C   0  0  0  0  0  0  0  0  0  0  0  0
    4.3460    0.4447    1.1678 C   0  0  0  0  0  0  0  0  0  0  0  0
    3.7630    0.8217    2.0210 H   0  0  0  0  0  0  0  0  0  0  0  0
    5.7467    0.4348    1.2215 C   0  0  0  0  0  0  0  0  0  0  0  0
    6.2598    0.8020    2.1233 H   0  0  0  0  0  0  0  0  0  0  0  0
    6.4915   -0.0390    0.1299 C   0  0  0  0  0  0  0  0  0  0  0  0
    7.5913   -0.0444    0.1718 H   0  0  0  0  0  0  0  0  0  0  0  0
    5.8271   -0.5072   -1.0147 C   0  0  0  0  0  0  0  0  0  0  0  0
    6.4036   -0.8813   -1.8743 H   0  0  0  0  0  0  0  0  0  0  0  0
    4.4263   -0.5057   -1.0669 C   0  0  0  0  0  0  0  0  0  0  0  0
    3.9065   -0.8821   -1.9601 H   0  0  0  0  0  0  0  0  0  0  0  0
    2.2199   -2.5266   -0.2224 C   0  0  0  0  0  0  0  0  0  0  0  0
    3.0865   -2.9967    0.7847 C   0  0  0  0  0  0  0  0  0  0  0  0
    3.1933   -2.4225    1.7164 H   0  0  0  0  0  0  0  0  0  0  0  0
    3.8025   -4.1884    0.6033 C   0  0  0  0  0  0  0  0  0  0  0  0
    4.4717   -4.5485    1.3993 H   0  0  0  0  0  0  0  0  0  0  0  0
    3.6687   -4.9185   -0.5884 C   0  0  0  0  0  0  0  0  0  0  0  0
    4.2334   -5.8524   -0.7303 H   0  0  0  0  0  0  0  0  0  0  0  0
    2.8112   -4.4531   -1.5989 C   0  0  0  0  0  0  0  0  0  0  0  0
    2.7007   -5.0210   -2.5351 H   0  0  0  0  0  0  0  0  0  0  0  0
    2.0888   -3.2660   -1.4173 C   0  0  0  0  0  0  0  0  0  0  0  0
    1.4039   -2.9043   -2.1994 H   0  0  0  0  0  0  0  0  0  0  0  0
   -0.8910   -2.3291    0.2543 C   0  0  0  0  0  0  0  0  0  0  0  0
   -2.2753   -1.9536    0.2737 C   0  0  0  0  0  3  0  0  0  0  0  0
   -3.2476   -2.9382    0.5032 C   0  0  0  0  0  0  0  0  0  0  0  0
   -4.3116   -2.6614    0.5090 H   0  0  0  0  0  0  0  0  0  0  0  0
   -2.8763   -4.2708    0.7376 C   0  0  0  0  0  0  0  0  0  0  0  0
   -3.6526   -5.0318    0.9177 H   0  0  0  0  0  0  0  0  0  0  0  0
   -1.5189   -4.6351    0.7576 C   0  0  0  0  0  0  0  0  0  0  0  0
   -1.2254   -5.6757    0.9616 H   0  0  0  0  0  0  0  0  0  0  0  0
   -0.5323   -3.6732    0.5191 C   0  0  0  0  0  0  0  0  0  0  0  0
    0.5206   -3.9744    0.5519 H   0  0  0  0  0  0  0  0  0  0  0  0
  1  2  1  0  0  0  0
  2 50  1  1  0  0  0
  3  4  2  0  0  0  0
  3  2  1  0  0  0  0
  4  5  1  0  0  0  0
  4 28  1  0  0  0  0
  5 17  1  0  0  0  0
  6  1  1  0  0  0  0
  6  5  2  0  0  0  0
  7  8  1  0  0  0  0
  7  6  1  6  0  0  0
  9 10  1  0  0  0  0
  9  8  1  0  0  0  0
 11  9  2  0  0  0  0
 12 11  1  0  0  0  0
 13 11  1  0  0  0  0
 13 15  2  0  0  0  0
 14 13  1  0  0  0  0
 15  7  1  0  0  0  0
 16 15  1  0  0  0  0
 17 18  1  0  0  0  0
 18 20  2  0  0  0  0
 18 19  1  0  0  0  0
 20 21  1  0  0  0  0
 22 23  1  0  0  0  0
 22 20  1  0  0  0  0
 24 22  2  0  0  0  0
 25 24  1  0  0  0  0
 26 24  1  0  0  0  0
 26 17  2  0  0  0  0
 27 26  1  0  0  0  0
 28 29  1  0  0  0  0
 29 31  2  0  0  0  0
 29 30  1  0  0  0  0
 31 32  1  0  0  0  0
 33 34  1  0  0  0  0
 33 31  1  0  0  0  0
 35 33  2  0  0  0  0
 36 35  1  0  0  0  0
 37 35  1  0  0  0  0
 37 28  2  0  0  0  0
 38 37  1  0  0  0  0
 39  3  1  0  0  0  0
 39 40  1  0  0  0  0
 40 41  1  0  0  0  0
 42 40  2  0  0  0  0
 42 43  1  0  0  0  0
 44 42  1  0  0  0  0
 45 44  1  0  0  0  0
 46 48  1  0  0  0  0
 46 44  2  0  0  0  0
 47 46  1  0  0  0  0
 48 39  2  0  0  0  0
 49 48  1  0  0  0  0
 50 51  2  0  0  0  0
 50 58  1  0  0  0  0
 51 52  1  0  0  0  0
 52 53  1  0  0  0  0
 52 54  2  0  0  0  0
 54 56  1  0  0  0  0
 54 55  1  0  0  0  0
 56 57  1  0  0  0  0
 58 59  1  0  0  0  0
 58 56  2  0  0  0  0
M  END
