3,4,13
 OpenBabel05122313063D

 28 28  0  0  0  0  0  0  0  0999 V2000
    5.6286   -1.0763    0.0558 Cl  0  0  0  0  0  0  0  0  0  0  0  0
    1.9156    2.8049   -0.0716 Cl  0  0  0  0  0  0  0  0  0  0  0  0
   -3.0885   -0.3677   -0.0987 N   0  0  0  0  0  0  0  0  0  0  0  0
   -0.6484   -1.8116   -0.3435 N   0  0  0  0  0  2  0  0  0  0  0  0
   -2.9605   -1.7936    0.3310 C   0  0  0  0  0  0  0  0  0  0  0  0
   -1.8789   -2.5597   -0.4401 C   0  0  0  0  0  0  0  0  0  0  0  0
    0.5621   -2.2520   -0.2397 C   0  0  0  0  0  3  0  0  0  0  0  0
    1.6055   -1.2431   -0.1335 C   0  0  0  0  0  0  0  0  0  0  0  0
    2.9601   -1.6281   -0.0827 C   0  0  0  0  0  0  0  0  0  0  0  0
    3.9419   -0.6367   -0.0122 C   0  0  0  0  0  0  0  0  0  0  0  0
    3.5759    0.7155   -0.0050 C   0  0  0  0  0  0  0  0  0  0  0  0
    2.2156    1.0861   -0.0559 C   0  0  0  0  0  0  0  0  0  0  0  0
    1.1785    0.1341   -0.0991 C   0  0  0  0  0  3  0  0  0  0  0  0
   -3.7218   -0.2558   -1.4211 C   0  0  0  0  0  0  0  0  0  0  0  0
   -3.8896    0.3608    0.9058 C   0  0  0  0  0  0  0  0  0  0  0  0
   -2.6640   -1.7634    1.3987 H   0  0  0  0  0  0  0  0  0  0  0  0
   -3.9446   -2.3076    0.2338 H   0  0  0  0  0  0  0  0  0  0  0  0
   -2.1506   -2.6560   -1.5158 H   0  0  0  0  0  0  0  0  0  0  0  0
   -1.7854   -3.5907   -0.0328 H   0  0  0  0  0  0  0  0  0  0  0  0
    0.8040   -3.3342   -0.2296 H   0  0  0  0  0  0  0  0  0  0  0  0
    3.2423   -2.6902   -0.1010 H   0  0  0  0  0  0  0  0  0  0  0  0
    4.3457    1.4971    0.0402 H   0  0  0  0  0  0  0  0  0  0  0  0
   -3.1312   -0.7920   -2.1857 H   0  0  0  0  0  0  0  0  0  0  0  0
   -3.7702    0.8093   -1.7142 H   0  0  0  0  0  0  0  0  0  0  0  0
   -4.7562   -0.6704   -1.4022 H   0  0  0  0  0  0  0  0  0  0  0  0
   -3.3360    0.3554    1.8650 H   0  0  0  0  0  0  0  0  0  0  0  0
   -4.8917   -0.1103    1.0249 H   0  0  0  0  0  0  0  0  0  0  0  0
   -4.0266    1.4068    0.5751 H   0  0  0  0  0  0  0  0  0  0  0  0
  2 12  1  0  0  0  0
  3  5  1  0  0  0  0
  3 15  1  0  0  0  0
  4  7  1  0  0  0  0
  5 16  1  0  0  0  0
  6  4  1  0  0  0  0
  6 19  1  0  0  0  0
  6  5  1  0  0  0  0
  7 20  1  0  0  0  0
  7  8  1  0  0  0  0
  8 13  2  0  0  0  0
  8  9  1  0  0  0  0
  9 10  2  0  0  0  0
 10 11  1  0  0  0  0
 10  1  1  0  0  0  0
 11 22  1  0  0  0  0
 12 11  2  0  0  0  0
 13 12  1  0  0  0  0
 14 25  1  0  0  0  0
 14  3  1  0  0  0  0
 15 27  1  0  0  0  0
 15 26  1  0  0  0  0
 17  5  1  0  0  0  0
 18  6  1  0  0  0  0
 21  9  1  0  0  0  0
 23 14  1  0  0  0  0
 24 14  1  0  0  0  0
 28 15  1  0  0  0  0
M  END
