1,3,4
 OpenBabel05122313063D

 60 65  0  0  0  0  0  0  0  0999 V2000
   -2.0387   -0.1017    0.0255 C   0  0  0  0  0  2  0  0  0  0  0  0
   -0.5031   -2.6409   -0.0856 O   0  0  0  0  0  0  0  0  0  0  0  0
    1.9356   -0.9203   -0.0584 N   0  0  0  0  0  0  0  0  0  0  0  0
    0.2763    1.5080    0.0462 N   0  0  0  0  0  2  0  0  0  0  0  0
   -2.6786    1.1738    0.0796 C   0  0  0  0  0  0  0  0  0  0  0  0
   -4.1427    0.9780    0.0953 C   0  0  0  0  0  0  0  0  0  0  0  0
   -5.2097    1.8812    0.1433 C   0  0  0  0  0  0  0  0  0  0  0  0
   -5.0328    2.9675    0.1788 H   0  0  0  0  0  0  0  0  0  0  0  0
   -6.5262    1.3772    0.1458 C   0  0  0  0  0  0  0  0  0  0  0  0
   -7.3765    2.0752    0.1833 H   0  0  0  0  0  0  0  0  0  0  0  0
   -4.3838   -0.4223    0.0500 C   0  0  0  0  0  0  0  0  0  0  0  0
   -5.6910   -0.9196    0.0525 C   0  0  0  0  0  0  0  0  0  0  0  0
   -5.8903   -2.0022    0.0176 H   0  0  0  0  0  0  0  0  0  0  0  0
   -6.7645   -0.0070    0.1009 C   0  0  0  0  0  0  0  0  0  0  0  0
   -7.7990   -0.3828    0.1035 H   0  0  0  0  0  0  0  0  0  0  0  0
   -3.0666   -1.1024    0.0063 C   0  0  0  0  0  0  0  0  0  0  0  0
   -2.9375   -2.4925   -0.0448 C   0  0  0  0  0  3  0  0  0  0  0  0
   -3.8542   -3.1019   -0.0530 H   0  0  0  0  0  0  0  0  0  0  0  0
   -1.7664   -3.2452   -0.0892 C   0  0  0  0  0  0  0  0  0  0  0  0
   -1.5767   -4.6422   -0.1428 C   0  0  0  0  0  0  0  0  0  0  0  0
   -2.3946   -5.3706   -0.1575 H   0  0  0  0  0  0  0  0  0  0  0  0
   -0.2091   -4.8930   -0.1715 C   0  0  0  0  0  0  0  0  0  0  0  0
    0.2963   -5.8638   -0.2141 H   0  0  0  0  0  0  0  0  0  0  0  0
    0.4665   -3.6523   -0.1360 C   0  0  0  0  0  0  0  0  0  0  0  0
    1.8340   -3.3890   -0.1439 C   0  0  0  0  0  3  0  0  0  0  0  0
    2.4536   -4.2963   -0.1833 H   0  0  0  0  0  0  0  0  0  0  0  0
    2.5152   -2.1664   -0.1077 C   0  0  0  0  0  0  0  0  0  0  0  0
    3.9726   -2.0427   -0.1152 C   0  0  0  0  0  0  0  0  0  0  0  0
    4.9299   -3.1909   -0.1534 C   0  0  0  0  0  0  0  0  0  0  0  0
    4.7492   -3.8515   -1.0279 H   0  0  0  0  0  0  0  0  0  0  0  0
    4.8468   -3.8278    0.7533 H   0  0  0  0  0  0  0  0  0  0  0  0
    5.9783   -2.8405   -0.2135 H   0  0  0  0  0  0  0  0  0  0  0  0
    4.2489   -0.6888   -0.0737 C   0  0  0  0  0  0  0  0  0  0  0  0
    5.5850   -0.0101   -0.0098 C   0  0  0  0  0  0  0  0  0  0  0  0
    5.5715    0.8997   -0.6481 H   0  0  0  0  0  0  0  0  0  0  0  0
    6.3562   -0.6743   -0.4532 H   0  0  0  0  0  0  0  0  0  0  0  0
    6.0027    0.3742    1.4202 C   0  0  0  0  0  0  0  0  0  0  0  0
    6.9887    0.8817    1.4287 H   0  0  0  0  0  0  0  0  0  0  0  0
    6.0719   -0.5238    2.0665 H   0  0  0  0  0  0  0  0  0  0  0  0
    5.2613    1.0559    1.8840 H   0  0  0  0  0  0  0  0  0  0  0  0
    2.9570   -0.0057   -0.0355 C   0  0  0  0  0  3  0  0  0  0  0  0
    2.7642    1.3770    0.0090 C   0  0  0  0  0  0  0  0  0  0  0  0
    3.6684    2.0012    0.0183 H   0  0  0  0  0  0  0  0  0  0  0  0
    1.5434    2.0651    0.0436 C   0  0  0  0  0  0  0  0  0  0  0  0
    1.4335    3.5162    0.0922 C   0  0  0  0  0  0  0  0  0  0  0  0
    2.5909    4.4712    0.0504 C   0  0  0  0  0  0  0  0  0  0  0  0
    3.4171    4.0903    0.6886 H   0  0  0  0  0  0  0  0  0  0  0  0
    2.2830    5.4338    0.5099 H   0  0  0  0  0  0  0  0  0  0  0  0
    3.1175    4.7309   -1.3713 C   0  0  0  0  0  0  0  0  0  0  0  0
    3.9713    5.4389   -1.3623 H   0  0  0  0  0  0  0  0  0  0  0  0
    2.3225    5.1585   -2.0149 H   0  0  0  0  0  0  0  0  0  0  0  0
    3.4563    3.7902   -1.8508 H   0  0  0  0  0  0  0  0  0  0  0  0
    0.0806    3.8132    0.1179 C   0  0  0  0  0  0  0  0  0  0  0  0
   -0.5768    5.1567    0.1560 C   0  0  0  0  0  0  0  0  0  0  0  0
    0.1702    5.9692    0.2395 H   0  0  0  0  0  0  0  0  0  0  0  0
   -1.2722    5.2511    1.0162 H   0  0  0  0  0  0  0  0  0  0  0  0
   -1.1730    5.3481   -0.7613 H   0  0  0  0  0  0  0  0  0  0  0  0
   -0.6284    2.5464    0.0925 C   0  0  0  0  0  0  0  0  0  0  0  0
   -2.0239    2.4021    0.1103 C   0  0  0  0  0  0  0  0  0  0  0  0
   -2.6191    3.3269    0.1495 H   0  0  0  0  0  0  0  0  0  0  0  0
  1  5  1  0  0  0  0
  3 41  1  0  0  0  0
  4 58  1  0  0  0  0
  5  6  2  0  0  0  0
  5 59  1  0  0  0  0
  6  7  1  0  0  0  0
  7  9  2  0  0  0  0
  7  8  1  0  0  0  0
  9 10  1  0  0  0  0
 11 12  1  0  0  0  0
 11  6  1  0  0  0  0
 12 14  2  0  0  0  0
 13 12  1  0  0  0  0
 14 15  1  0  0  0  0
 14  9  1  0  0  0  0
 16  1  1  0  0  0  0
 16 11  2  0  0  0  0
 17 16  1  0  0  0  0
 18 17  1  0  0  0  0
 19  2  1  0  0  0  0
 19 17  1  0  0  0  0
 20 19  2  0  0  0  0
 21 20  1  0  0  0  0
 22 20  1  0  0  0  0
 22 24  2  0  0  0  0
 23 22  1  0  0  0  0
 24  2  1  0  0  0  0
 25 24  1  0  0  0  0
 25 27  1  0  0  0  0
 26 25  1  0  0  0  0
 27  3  2  0  0  0  0
 28 27  1  0  0  0  0
 28 33  2  0  0  0  0
 29 28  1  0  0  0  0
 29 31  1  0  0  0  0
 30 29  1  0  0  0  0
 32 29  1  0  0  0  0
 33 41  1  0  0  0  0
 33 34  1  0  0  0  0
 34 37  1  0  0  0  0
 35 34  1  0  0  0  0
 36 34  1  0  0  0  0
 37 38  1  0  0  0  0
 37 40  1  0  0  0  0
 37 39  1  0  0  0  0
 41 42  1  0  0  0  0
 42 43  1  0  0  0  0
 42 44  2  0  0  0  0
 44  4  1  0  0  0  0
 44 45  1  0  0  0  0
 45 53  2  0  0  0  0
 46 45  1  0  0  0  0
 46 48  1  0  0  0  0
 46 47  1  0  0  0  0
 49 50  1  0  0  0  0
 49 46  1  0  0  0  0
 51 49  1  0  0  0  0
 52 49  1  0  0  0  0
 53 54  1  0  0  0  0
 54 55  1  0  0  0  0
 54 56  1  0  0  0  0
 57 54  1  0  0  0  0
 58 59  2  0  0  0  0
 58 53  1  0  0  0  0
 59 60  1  0  0  0  0
M  END
