1,17,18
 OpenBabel05122313063D

 45 45  0  0  0  0  0  0  0  0999 V2000
    0.0000    1.6320    0.0682 C   0  0  0  0  0  3  0  0  0  0  0  0
    1.2214    2.3361    0.0484 C   0  0  0  0  0  0  0  0  0  0  0  0
    1.2237    3.7379   -0.0344 C   0  0  0  0  0  0  0  0  0  0  0  0
    0.0001    4.4331   -0.0856 C   0  0  0  0  0  0  0  0  0  0  0  0
   -1.2235    3.7380   -0.0344 C   0  0  0  0  0  0  0  0  0  0  0  0
   -1.2212    2.3362    0.0484 C   0  0  0  0  0  0  0  0  0  0  0  0
   -2.4154    1.4430    0.2135 C   0  0  0  0  0  0  0  0  0  0  0  0
    2.4155    1.4429    0.2135 C   0  0  0  0  0  0  0  0  0  0  0  0
    2.2909   -1.1337    1.9641 C   0  0  0  0  0  0  0  0  0  0  0  0
    2.8124   -1.0065    0.5355 C   0  0  0  0  0  0  0  0  0  0  0  0
    2.2526   -0.0753   -1.6830 C   0  0  0  0  0  0  0  0  0  0  0  0
    4.3315   -0.8043    0.4951 C   0  0  0  0  0  0  0  0  0  0  0  0
   -2.2526   -0.0751   -1.6830 C   0  0  0  0  0  0  0  0  0  0  0  0
   -2.8124   -1.0064    0.5355 C   0  0  0  0  0  0  0  0  0  0  0  0
   -2.2907   -1.1339    1.9639 C   0  0  0  0  0  0  0  0  0  0  0  0
   -4.3315   -0.8039    0.4954 C   0  0  0  0  0  0  0  0  0  0  0  0
    2.0426    0.0513   -0.2199 N   0  0  0  0  0  0  0  0  0  0  0  0
   -2.0426    0.0514   -0.2199 N   0  0  0  0  0  0  0  0  0  0  0  0
    2.1740    4.2960   -0.0577 H   0  0  0  0  0  0  0  0  0  0  0  0
    0.0002    5.5310   -0.1611 H   0  0  0  0  0  0  0  0  0  0  0  0
   -2.1738    4.2962   -0.0577 H   0  0  0  0  0  0  0  0  0  0  0  0
    2.5511   -1.9465    0.0077 H   0  0  0  0  0  0  0  0  0  0  0  0
   -2.5514   -1.9463    0.0075 H   0  0  0  0  0  0  0  0  0  0  0  0
   -2.6915    1.3995    1.2872 H   0  0  0  0  0  0  0  0  0  0  0  0
   -3.3176    1.7895   -0.3375 H   0  0  0  0  0  0  0  0  0  0  0  0
    3.3177    1.7893   -0.3374 H   0  0  0  0  0  0  0  0  0  0  0  0
    2.6915    1.3993    1.2872 H   0  0  0  0  0  0  0  0  0  0  0  0
    2.4523   -0.2116    2.5598 H   0  0  0  0  0  0  0  0  0  0  0  0
    1.2081   -1.3667    1.9486 H   0  0  0  0  0  0  0  0  0  0  0  0
    2.8143   -1.9621    2.4810 H   0  0  0  0  0  0  0  0  0  0  0  0
    3.3266    0.0458   -1.9473 H   0  0  0  0  0  0  0  0  0  0  0  0
    1.8888   -1.0660   -2.0141 H   0  0  0  0  0  0  0  0  0  0  0  0
    1.6730    0.7145   -2.1960 H   0  0  0  0  0  0  0  0  0  0  0  0
    4.7199   -0.6870   -0.5359 H   0  0  0  0  0  0  0  0  0  0  0  0
    4.6550    0.0740    1.0902 H   0  0  0  0  0  0  0  0  0  0  0  0
    4.8255   -1.6953    0.9298 H   0  0  0  0  0  0  0  0  0  0  0  0
   -1.8888   -1.0658   -2.0141 H   0  0  0  0  0  0  0  0  0  0  0  0
   -3.3266    0.0460   -1.9473 H   0  0  0  0  0  0  0  0  0  0  0  0
   -1.6730    0.7147   -2.1960 H   0  0  0  0  0  0  0  0  0  0  0  0
   -1.2079   -1.3673    1.9482 H   0  0  0  0  0  0  0  0  0  0  0  0
   -2.4516   -0.2119    2.5598 H   0  0  0  0  0  0  0  0  0  0  0  0
   -2.8142   -1.9622    2.4809 H   0  0  0  0  0  0  0  0  0  0  0  0
   -4.6548    0.0742    1.0908 H   0  0  0  0  0  0  0  0  0  0  0  0
   -4.7201   -0.6863   -0.5354 H   0  0  0  0  0  0  0  0  0  0  0  0
   -4.8256   -1.6950    0.9300 H   0  0  0  0  0  0  0  0  0  0  0  0
  2  1  1  0  0  0  0
  2  8  1  0  0  0  0
  3  2  2  0  0  0  0
  4  5  2  0  0  0  0
  4  3  1  0  0  0  0
  5  6  1  0  0  0  0
  6  1  2  0  0  0  0
  6  7  1  0  0  0  0
  7 24  1  0  0  0  0
  8 27  1  0  0  0  0
  9 30  1  0  0  0  0
  9 28  1  0  0  0  0
 10  9  1  0  0  0  0
 11 17  1  0  0  0  0
 12 10  1  0  0  0  0
 12 36  1  0  0  0  0
 12 35  1  0  0  0  0
 13 18  1  0  0  0  0
 14 15  1  0  0  0  0
 15 42  1  0  0  0  0
 15 41  1  0  0  0  0
 16 14  1  0  0  0  0
 16 45  1  0  0  0  0
 16 43  1  0  0  0  0
 17  8  1  0  0  0  0
 17 10  1  0  0  0  0
 18  7  1  0  0  0  0
 18 14  1  0  0  0  0
 19  3  1  0  0  0  0
 20  4  1  0  0  0  0
 21  5  1  0  0  0  0
 22 10  1  0  0  0  0
 23 14  1  0  0  0  0
 25  7  1  0  0  0  0
 26  8  1  0  0  0  0
 29  9  1  0  0  0  0
 31 11  1  0  0  0  0
 32 11  1  0  0  0  0
 33 11  1  0  0  0  0
 34 12  1  0  0  0  0
 37 13  1  0  0  0  0
 38 13  1  0  0  0  0
 39 13  1  0  0  0  0
 40 15  1  0  0  0  0
 44 16  1  0  0  0  0
M  END
