1,2,4
 OpenBabel05122313063D

 48 49  0  0  0  0  0  0  0  0999 V2000
    2.4590    2.1061   -0.0697 N   0  0  0  0  0  0  0  0  0  0  0  0
    2.7984   -2.0789    0.0696 N   0  0  0  0  0  0  0  0  0  0  0  0
  -11.0817   -0.2798   -0.0316 N   0  0  0  0  0  0  0  0  0  0  0  0
    0.9962   -0.1202   -0.0097 C   0  0  0  0  0  3  0  0  0  0  0  0
    0.2109    1.0428    0.1535 C   0  0  0  0  0  0  0  0  0  0  0  0
   -1.1800    0.9341    0.1302 C   0  0  0  0  0  0  0  0  0  0  0  0
   -1.8084    1.8302    0.2522 H   0  0  0  0  0  0  0  0  0  0  0  0
   -1.8013   -0.3402   -0.0297 C   0  0  0  0  0  0  0  0  0  0  0  0
   -0.9819   -1.4976   -0.1766 C   0  0  0  0  0  0  0  0  0  0  0  0
   -1.4744   -2.4762   -0.3039 H   0  0  0  0  0  0  0  0  0  0  0  0
    0.4120   -1.3913   -0.1805 C   0  0  0  0  0  0  0  0  0  0  0  0
    1.0360    2.2737    0.4443 C   0  0  0  0  0  0  0  0  0  0  0  0
    1.1213    2.4018    1.5435 H   0  0  0  0  0  0  0  0  0  0  0  0
    0.6088    3.2157    0.0346 H   0  0  0  0  0  0  0  0  0  0  0  0
    2.5316    2.5099   -1.4987 C   0  0  0  0  0  0  0  0  0  0  0  0
    2.3024    3.5948   -1.5996 H   0  0  0  0  0  0  0  0  0  0  0  0
    1.8030    1.9182   -2.0815 H   0  0  0  0  0  0  0  0  0  0  0  0
    3.5497    2.3034   -1.8755 H   0  0  0  0  0  0  0  0  0  0  0  0
    3.3962    2.9301    0.7308 C   0  0  0  0  0  0  0  0  0  0  0  0
    4.4257    2.7290    0.3804 H   0  0  0  0  0  0  0  0  0  0  0  0
    3.3296    2.6245    1.7907 H   0  0  0  0  0  0  0  0  0  0  0  0
    3.1423    4.0088    0.6316 H   0  0  0  0  0  0  0  0  0  0  0  0
    1.4253   -2.4761   -0.4559 C   0  0  0  0  0  0  0  0  0  0  0  0
    1.5410   -2.5974   -1.5531 H   0  0  0  0  0  0  0  0  0  0  0  0
    1.1512   -3.4716   -0.0417 H   0  0  0  0  0  0  0  0  0  0  0  0
    2.9231   -2.4643    1.5000 C   0  0  0  0  0  0  0  0  0  0  0  0
    2.1027   -1.9984    2.0749 H   0  0  0  0  0  0  0  0  0  0  0  0
    3.8906   -2.0948    1.8855 H   0  0  0  0  0  0  0  0  0  0  0  0
    2.8724   -3.5719    1.6014 H   0  0  0  0  0  0  0  0  0  0  0  0
    3.8637   -2.7407   -0.7212 C   0  0  0  0  0  0  0  0  0  0  0  0
    4.8438   -2.3749   -0.3629 H   0  0  0  0  0  0  0  0  0  0  0  0
    3.7574   -2.4513   -1.7823 H   0  0  0  0  0  0  0  0  0  0  0  0
    3.7874   -3.8462   -0.6214 H   0  0  0  0  0  0  0  0  0  0  0  0
   -3.2475   -0.5125   -0.0498 C   0  0  0  0  0  0  0  0  0  0  0  0
   -3.5773   -1.5590   -0.1701 H   0  0  0  0  0  0  0  0  0  0  0  0
   -4.2058    0.4543    0.0597 C   0  0  0  0  0  0  0  0  0  0  0  0
   -3.8897    1.5044    0.1787 H   0  0  0  0  0  0  0  0  0  0  0  0
   -5.6493    0.2547    0.0355 C   0  0  0  0  0  0  0  0  0  0  0  0
   -6.5046    1.3810    0.1631 C   0  0  0  0  0  0  0  0  0  0  0  0
   -6.0540    2.3792    0.2774 H   0  0  0  0  0  0  0  0  0  0  0  0
   -7.8933    1.2557    0.1473 C   0  0  0  0  0  0  0  0  0  0  0  0
   -8.5344    2.1432    0.2478 H   0  0  0  0  0  0  0  0  0  0  0  0
   -8.4885   -0.0200    0.0010 C   0  0  0  0  0  0  0  0  0  0  0  0
   -7.6502   -1.1569   -0.1277 C   0  0  0  0  0  0  0  0  0  0  0  0
   -8.1063   -2.1508   -0.2417 H   0  0  0  0  0  0  0  0  0  0  0  0
   -6.2650   -1.0177   -0.1103 C   0  0  0  0  0  0  0  0  0  0  0  0
   -5.6422   -1.9182   -0.2125 H   0  0  0  0  0  0  0  0  0  0  0  0
   -9.9123   -0.1621   -0.0168 C   0  0  0  0  0  0  0  0  0  0  0  0
  1 12  1  0  0  0  0
  1 19  1  0  0  0  0
  2 26  1  0  0  0  0
  3 48  3  0  0  0  0
  4  5  1  0  0  0  0
  5 12  1  0  0  0  0
  6  5  2  0  0  0  0
  6  7  1  0  0  0  0
  8  6  1  0  0  0  0
  9  8  2  0  0  0  0
 10  9  1  0  0  0  0
 11  9  1  0  0  0  0
 11  4  2  0  0  0  0
 12 13  1  0  0  0  0
 14 12  1  0  0  0  0
 15  1  1  0  0  0  0
 16 15  1  0  0  0  0
 17 15  1  0  0  0  0
 18 15  1  0  0  0  0
 19 21  1  0  0  0  0
 20 19  1  0  0  0  0
 22 19  1  0  0  0  0
 23 11  1  0  0  0  0
 23 25  1  0  0  0  0
 23  2  1  0  0  0  0
 24 23  1  0  0  0  0
 26 29  1  0  0  0  0
 26 28  1  0  0  0  0
 26 27  1  0  0  0  0
 30 33  1  0  0  0  0
 30 31  1  0  0  0  0
 30  2  1  0  0  0  0
 32 30  1  0  0  0  0
 34  8  1  0  0  0  0
 34 36  2  0  0  0  0
 35 34  1  0  0  0  0
 36 37  1  0  0  0  0
 38 36  1  0  0  0  0
 38 39  1  0  0  0  0
 39 40  1  0  0  0  0
 41 39  2  0  0  0  0
 41 42  1  0  0  0  0
 43 41  1  0  0  0  0
 44 46  1  0  0  0  0
 44 43  2  0  0  0  0
 45 44  1  0  0  0  0
 46 38  2  0  0  0  0
 47 46  1  0  0  0  0
 48 43  1  0  0  0  0
M  END
