1,2,3
 OpenBabel05122313063D

 48 49  0  0  0  0  0  0  0  0999 V2000
    0.7826    2.0236    0.5180 N   0  0  0  0  0  2  0  0  0  0  0  0
    0.7825   -2.0234    0.5188 N   0  0  0  0  0  2  0  0  0  0  0  0
    2.0316   -0.0001   -0.4017 C   0  0  0  0  0  2  0  0  0  0  0  0
    2.5865    1.2432   -0.7973 C   0  0  0  0  0  0  0  0  0  0  0  0
    3.7292    1.2337   -1.6256 C   0  0  0  0  0  0  0  0  0  0  0  0
    4.2811   -0.0004   -2.0283 C   0  0  0  0  0  0  0  0  0  0  0  0
    3.7293   -1.2343   -1.6251 C   0  0  0  0  0  0  0  0  0  0  0  0
    2.5865   -1.2435   -0.7968 C   0  0  0  0  0  0  0  0  0  0  0  0
    1.8083    2.3379   -0.2519 C   0  0  0  0  0  3  0  0  0  0  0  0
    1.8083   -2.3380   -0.2509 C   0  0  0  0  0  0  0  0  0  0  0  0
   -0.1307    3.0534    1.0026 C   0  0  0  0  0  0  0  0  0  0  0  0
   -1.5379    2.8770    0.4119 C   0  0  0  0  0  0  0  0  0  0  0  0
   -1.5812    2.8333   -1.1159 C   0  0  0  0  0  0  0  0  0  0  0  0
   -2.9865    2.5877   -1.6862 C   0  0  0  0  0  0  0  0  0  0  0  0
   -3.6564    1.2751   -1.2488 C   0  0  0  0  0  0  0  0  0  0  0  0
   -2.8826   -0.0003   -1.6007 C   0  0  0  0  0  0  0  0  0  0  0  0
   -3.6562   -1.2759   -1.2489 C   0  0  0  0  0  0  0  0  0  0  0  0
   -2.9860   -2.5884   -1.6862 C   0  0  0  0  0  0  0  0  0  0  0  0
   -1.5808   -2.8338   -1.1155 C   0  0  0  0  0  0  0  0  0  0  0  0
   -1.5379   -2.8771    0.4123 C   0  0  0  0  0  0  0  0  0  0  0  0
   -0.1308   -3.0530    1.0035 C   0  0  0  0  0  0  0  0  0  0  0  0
    4.1936    2.1752   -1.9591 H   0  0  0  0  0  0  0  0  0  0  0  0
    5.1713   -0.0005   -2.6744 H   0  0  0  0  0  0  0  0  0  0  0  0
    4.1936   -2.1759   -1.9582 H   0  0  0  0  0  0  0  0  0  0  0  0
    2.0176    3.4021   -0.4682 H   0  0  0  0  0  0  0  0  0  0  0  0
    2.0176   -3.4023   -0.4668 H   0  0  0  0  0  0  0  0  0  0  0  0
   -0.1926    2.9559    2.1061 H   0  0  0  0  0  0  0  0  0  0  0  0
    0.2884    4.0540    0.7525 H   0  0  0  0  0  0  0  0  0  0  0  0
   -2.1665    3.7105    0.7943 H   0  0  0  0  0  0  0  0  0  0  0  0
   -1.9546    1.9439    0.8435 H   0  0  0  0  0  0  0  0  0  0  0  0
   -1.1788    3.7839   -1.5336 H   0  0  0  0  0  0  0  0  0  0  0  0
   -0.8973    2.0337   -1.4749 H   0  0  0  0  0  0  0  0  0  0  0  0
   -3.6477    3.4370   -1.4042 H   0  0  0  0  0  0  0  0  0  0  0  0
   -2.9249    2.6079   -2.7968 H   0  0  0  0  0  0  0  0  0  0  0  0
   -4.6650    1.2263   -1.7158 H   0  0  0  0  0  0  0  0  0  0  0  0
   -3.8398    1.2872   -0.1518 H   0  0  0  0  0  0  0  0  0  0  0  0
   -1.9077   -0.0003   -1.0638 H   0  0  0  0  0  0  0  0  0  0  0  0
   -2.6362   -0.0003   -2.6879 H   0  0  0  0  0  0  0  0  0  0  0  0
   -3.8397   -1.2881   -0.1519 H   0  0  0  0  0  0  0  0  0  0  0  0
   -4.6648   -1.2274   -1.7161 H   0  0  0  0  0  0  0  0  0  0  0  0
   -2.9241   -2.6086   -2.7968 H   0  0  0  0  0  0  0  0  0  0  0  0
   -3.6471   -3.4378   -1.4043 H   0  0  0  0  0  0  0  0  0  0  0  0
   -1.1781   -3.7843   -1.5329 H   0  0  0  0  0  0  0  0  0  0  0  0
   -0.8970   -2.0341   -1.4745 H   0  0  0  0  0  0  0  0  0  0  0  0
   -2.1665   -3.7106    0.7948 H   0  0  0  0  0  0  0  0  0  0  0  0
   -1.9549   -1.9440    0.8436 H   0  0  0  0  0  0  0  0  0  0  0  0
   -0.1931   -2.9551    2.1069 H   0  0  0  0  0  0  0  0  0  0  0  0
    0.2884   -4.0537    0.7540 H   0  0  0  0  0  0  0  0  0  0  0  0
  1 11  1  0  0  0  0
  2 21  1  0  0  0  0
  4  3  1  0  0  0  0
  4  9  1  0  0  0  0
  5  4  2  0  0  0  0
  6  5  1  0  0  0  0
  6  7  2  0  0  0  0
  7  8  1  0  0  0  0
  8  3  1  0  0  0  0
  8 10  2  0  0  0  0
  9  1  1  0  0  0  0
 10  2  1  0  0  0  0
 11 27  1  0  0  0  0
 12 29  1  0  0  0  0
 12 30  1  0  0  0  0
 12 11  1  0  0  0  0
 13 12  1  0  0  0  0
 14 33  1  0  0  0  0
 14 15  1  0  0  0  0
 14 13  1  0  0  0  0
 15 36  1  0  0  0  0
 16 17  1  0  0  0  0
 16 15  1  0  0  0  0
 16 37  1  0  0  0  0
 17 39  1  0  0  0  0
 18 42  1  0  0  0  0
 18 17  1  0  0  0  0
 18 19  1  0  0  0  0
 19 20  1  0  0  0  0
 20 45  1  0  0  0  0
 20 46  1  0  0  0  0
 20 21  1  0  0  0  0
 21 47  1  0  0  0  0
 22  5  1  0  0  0  0
 23  6  1  0  0  0  0
 24  7  1  0  0  0  0
 25  9  1  0  0  0  0
 26 10  1  0  0  0  0
 28 11  1  0  0  0  0
 31 13  1  0  0  0  0
 32 13  1  0  0  0  0
 34 14  1  0  0  0  0
 35 15  1  0  0  0  0
 38 16  1  0  0  0  0
 40 17  1  0  0  0  0
 41 18  1  0  0  0  0
 43 19  1  0  0  0  0
 44 19  1  0  0  0  0
 48 21  1  0  0  0  0
M  END
