1,2,5
 OpenBabel05122313063D

 31 32  0  0  0  0  0  0  0  0999 V2000
    0.6264    0.9765   -0.0549 N   0  0  0  0  0  2  0  0  0  0  0  0
    2.0576   -1.2777   -0.3703 N   0  0  0  0  0  0  0  0  0  0  0  0
    2.4105   -2.1452    0.0578 H   0  0  0  0  0  0  0  0  0  0  0  0
    2.1845   -1.3779   -1.3880 H   0  0  0  0  0  0  0  0  0  0  0  0
   -1.8332    0.1111    0.0600 C   0  0  0  0  0  2  0  0  0  0  0  0
   -3.1397   -0.4048    0.1533 C   0  0  0  0  0  0  0  0  0  0  0  0
   -3.2757   -1.4959    0.1866 H   0  0  0  0  0  0  0  0  0  0  0  0
   -4.2452    0.4592    0.1960 C   0  0  0  0  0  0  0  0  0  0  0  0
   -5.2605    0.0376    0.2694 H   0  0  0  0  0  0  0  0  0  0  0  0
   -4.0766    1.8572    0.1440 C   0  0  0  0  0  0  0  0  0  0  0  0
   -4.9522    2.5226    0.1769 H   0  0  0  0  0  0  0  0  0  0  0  0
   -2.7901    2.3970    0.0504 C   0  0  0  0  0  0  0  0  0  0  0  0
   -2.6573    3.4898    0.0106 H   0  0  0  0  0  0  0  0  0  0  0  0
   -1.6677    1.5412    0.0104 C   0  0  0  0  0  0  0  0  0  0  0  0
   -0.2848    2.0089   -0.0671 C   0  0  0  0  0  0  0  0  0  0  0  0
    0.1999    3.3275   -0.1418 C   0  0  0  0  0  0  0  0  0  0  0  0
   -0.5098    4.1658   -0.1571 H   0  0  0  0  0  0  0  0  0  0  0  0
    1.5792    3.5563   -0.2011 C   0  0  0  0  0  0  0  0  0  0  0  0
    1.9638    4.5844   -0.2714 H   0  0  0  0  0  0  0  0  0  0  0  0
    2.4783    2.4731   -0.1592 C   0  0  0  0  0  0  0  0  0  0  0  0
    3.5624    2.6452   -0.1826 H   0  0  0  0  0  0  0  0  0  0  0  0
    1.9694    1.1727   -0.0706 C   0  0  0  0  0  0  0  0  0  0  0  0
    2.8190   -0.0917    0.1486 C   0  0  0  0  0  0  0  0  0  0  0  0
    2.9685   -0.2856    1.6713 C   0  0  0  0  0  0  0  0  0  0  0  0
    1.9708   -0.4016    2.1397 H   0  0  0  0  0  0  0  0  0  0  0  0
    3.4777    0.5865    2.1232 H   0  0  0  0  0  0  0  0  0  0  0  0
    3.5709   -1.1926    1.8880 H   0  0  0  0  0  0  0  0  0  0  0  0
    4.1918    0.0029   -0.5306 C   0  0  0  0  0  0  0  0  0  0  0  0
    4.7511   -0.9424   -0.3824 H   0  0  0  0  0  0  0  0  0  0  0  0
    4.8056    0.8182   -0.1008 H   0  0  0  0  0  0  0  0  0  0  0  0
    4.0911    0.1875   -1.6194 H   0  0  0  0  0  0  0  0  0  0  0  0
  2  3  1  0  0  0  0
  2 23  1  0  0  0  0
  4  2  1  0  0  0  0
  5  6  1  0  0  0  0
  6  7  1  0  0  0  0
  6  8  2  0  0  0  0
  8  9  1  0  0  0  0
 10 11  1  0  0  0  0
 10  8  1  0  0  0  0
 12 10  2  0  0  0  0
 13 12  1  0  0  0  0
 14 12  1  0  0  0  0
 14  5  1  0  0  0  0
 15  1  1  0  0  0  0
 15 14  2  0  0  0  0
 16 15  1  0  0  0  0
 17 16  1  0  0  0  0
 18 20  1  0  0  0  0
 18 16  2  0  0  0  0
 19 18  1  0  0  0  0
 20 22  2  0  0  0  0
 21 20  1  0  0  0  0
 22  1  1  0  0  0  0
 22 23  1  0  0  0  0
 23 24  1  0  0  0  0
 24 27  1  0  0  0  0
 24 26  1  0  0  0  0
 24 25  1  0  0  0  0
 28 29  1  0  0  0  0
 28 30  1  0  0  0  0
 28 23  1  0  0  0  0
 31 28  1  0  0  0  0
M  END
