1,4,17
 OpenBabel05122313063D

 45 48  0  0  1  0  0  0  0  0999 V2000
    3.3734   -0.5806   -0.2756 N   0  0  0  0  0  2  0  0  0  0  0  0
   -1.3821   -1.6368   -0.1893 O   0  0  0  0  0  0  0  0  0  0  0  0
   -3.0250   -0.2202    2.1133 O   0  0  0  0  0  0  0  0  0  0  0  0
    0.6978   -0.6526    0.1062 N   0  0  0  0  0  2  0  0  0  0  0  0
    5.5469   -1.5783   -0.5458 C   0  0  0  0  0  0  0  0  0  0  0  0
    6.6188   -1.4295   -0.7392 H   0  0  0  0  0  0  0  0  0  0  0  0
   -3.1909    1.0244   -2.3377 O   0  0  0  0  0  0  0  0  0  0  0  0
    2.8137   -1.8148   -0.0770 C   0  0  2  0  0  3  0  0  0  0  0  0
    3.6247   -3.0045   -0.0898 C   0  0  0  0  0  0  0  0  0  0  0  0
   -3.5692    0.6130   -1.2528 C   0  0  0  0  0  0  0  0  0  0  0  0
    0.8328   -3.1458    0.3667 C   0  0  0  0  0  0  0  0  0  0  0  0
   -0.2467   -3.2230    0.5237 H   0  0  0  0  0  0  0  0  0  0  0  0
    4.6807   -0.4611   -0.5041 C   0  0  0  0  0  0  0  0  0  0  0  0
    5.0607    0.5615   -0.6559 H   0  0  0  0  0  0  0  0  0  0  0  0
    3.0089   -4.2634    0.1398 C   0  0  0  0  0  0  0  0  0  0  0  0
    3.6229   -5.1761    0.1352 H   0  0  0  0  0  0  0  0  0  0  0  0
    0.4952    2.3233    0.5169 C   0  0  0  0  0  3  0  0  0  0  0  0
    0.9284    2.9629    1.3157 H   0  0  0  0  0  0  0  0  0  0  0  0
    0.3674    2.9514   -0.3950 H   0  0  0  0  0  0  0  0  0  0  0  0
   -0.6698   -0.6370   -0.0552 C   0  0  0  0  0  0  0  0  0  0  0  0
    1.6396   -4.3075    0.3696 C   0  0  0  0  0  0  0  0  0  0  0  0
    1.1511   -5.2762    0.5579 H   0  0  0  0  0  0  0  0  0  0  0  0
   -5.9732   -0.8299    1.1378 C   0  0  0  0  0  0  0  0  0  0  0  0
   -5.9118   -1.1345    2.1931 H   0  0  0  0  0  0  0  0  0  0  0  0
   -4.8601   -0.2982    0.4867 C   0  0  0  0  0  0  0  0  0  0  0  0
   -4.9180    0.0965   -0.8600 C   0  0  0  0  0  0  0  0  0  0  0  0
   -6.0899   -0.0283   -1.6066 C   0  0  0  0  0  0  0  0  0  0  0  0
   -6.1186    0.2833   -2.6612 H   0  0  0  0  0  0  0  0  0  0  0  0
   -7.2186   -0.5681   -0.9590 C   0  0  0  0  0  0  0  0  0  0  0  0
   -8.1609   -0.6859   -1.5154 H   0  0  0  0  0  0  0  0  0  0  0  0
   -7.1610   -0.9629    0.3920 C   0  0  0  0  0  0  0  0  0  0  0  0
   -8.0594   -1.3831    0.8693 H   0  0  0  0  0  0  0  0  0  0  0  0
   -2.7819    0.5429   -0.0877 N   0  0  0  0  0  0  0  0  0  0  0  0
    1.3894   -1.8712    0.1391 C   0  0  0  0  0  0  0  0  0  0  0  0
   -3.4765   -0.0321    0.9964 C   0  0  0  0  0  0  0  0  0  0  0  0
   -1.8478    2.9067    1.1763 C   0  0  0  0  0  0  0  0  0  0  0  0
   -2.0820    3.4223    0.2212 H   0  0  0  0  0  0  0  0  0  0  0  0
   -1.4178    3.6573    1.8702 H   0  0  0  0  0  0  0  0  0  0  0  0
   -2.7969    2.5472    1.6193 H   0  0  0  0  0  0  0  0  0  0  0  0
   -1.3491    0.7597   -0.1100 C   0  0  1  0  0  0  0  0  0  0  0  0
   -1.1507    1.1892   -1.1181 H   0  0  0  0  0  0  0  0  0  0  0  0
   -0.8477    1.7597    0.9546 C   0  0  1  0  0  0  0  0  0  0  0  0
   -0.7355    1.2114    1.9134 H   0  0  0  0  0  0  0  0  0  0  0  0
    5.0171   -2.8427   -0.3332 C   0  0  0  0  0  0  0  0  0  0  0  0
    5.6622   -3.7351   -0.3497 H   0  0  0  0  0  0  0  0  0  0  0  0
  2 20  2  0  0  0  0
  4 34  1  0  0  0  0
  5 13  2  0  0  0  0
  5 44  1  0  0  0  0
  6  5  1  0  0  0  0
  7 10  2  0  0  0  0
  8  1  1  6  0  0  0
  8 34  1  0  0  0  0
  9  8  1  0  0  0  0
  9 15  1  0  0  0  0
 10 26  1  0  0  0  0
 10 33  1  0  0  0  0
 11 21  1  0  0  0  0
 11 12  1  0  0  0  0
 13  1  1  0  0  0  0
 14 13  1  0  0  0  0
 15 21  2  0  0  0  0
 16 15  1  0  0  0  0
 17 42  1  0  0  0  0
 17 18  1  0  0  0  0
 19 17  1  0  0  0  0
 20  4  1  0  0  0  0
 21 22  1  0  0  0  0
 23 24  1  0  0  0  0
 25 35  1  0  0  0  0
 25 23  1  0  0  0  0
 26 25  2  0  0  0  0
 27 29  2  0  0  0  0
 27 26  1  0  0  0  0
 28 27  1  0  0  0  0
 29 31  1  0  0  0  0
 30 29  1  0  0  0  0
 31 32  1  0  0  0  0
 31 23  2  0  0  0  0
 33 35  1  0  0  0  0
 34 11  2  0  0  0  0
 35  3  2  0  0  0  0
 36 39  1  0  0  0  0
 36 38  1  0  0  0  0
 37 36  1  0  0  0  0
 40 41  1  6  0  0  0
 40 33  1  0  0  0  0
 40 20  1  0  0  0  0
 40 42  1  0  0  0  0
 42 36  1  0  0  0  0
 42 43  1  1  0  0  0
 44  9  2  0  0  0  0
 45 44  1  0  0  0  0
M  END
