3,4,5
 OpenBabel05122313063D

 71 72  0  0  1  0  0  0  0  0999 V2000
   -3.1665    0.0149   -0.0660 Si  0  0  0  0  0  0  0  0  0  0  0  0
    2.2935    2.7383   -1.1158 O   0  0  0  0  0  0  0  0  0  0  0  0
   -0.9242    1.3999   -0.4846 N   0  0  0  0  0  2  0  0  0  0  0  0
    1.5429    0.6769   -0.2802 N   0  0  0  0  0  2  0  0  0  0  0  0
   -1.8725   -1.1711   -0.7866 C   0  0  0  0  0  3  0  0  0  0  0  0
   -2.1155   -2.6578   -0.5413 C   0  0  0  0  0  0  0  0  0  0  0  0
   -1.6897   -0.9591   -2.2999 C   0  0  0  0  0  0  0  0  0  0  0  0
   -2.2640    1.6521   -0.4257 C   0  0  2  0  0  3  0  0  0  0  0  0
   -2.7231    2.9684   -0.6054 C   0  0  0  0  0  0  0  0  0  0  0  0
   -1.8089    4.0084   -0.8521 C   0  0  0  0  0  0  0  0  0  0  0  0
   -0.4389    3.7159   -0.8961 C   0  0  0  0  0  0  0  0  0  0  0  0
   -0.0305    2.3942   -0.6915 C   0  0  0  0  0  0  0  0  0  0  0  0
    1.4092    1.9658   -0.7113 C   0  0  0  0  0  0  0  0  0  0  0  0
    2.8353    0.0923   -0.3436 C   0  0  0  0  0  0  0  0  0  0  0  0
    3.0641   -0.9293   -1.3150 C   0  0  0  0  0  0  0  0  0  0  0  0
    4.3123   -1.5694   -1.3617 C   0  0  0  0  0  0  0  0  0  0  0  0
    5.3362   -1.2150   -0.4720 C   0  0  0  0  0  0  0  0  0  0  0  0
    5.1125   -0.2046    0.4686 C   0  0  0  0  0  0  0  0  0  0  0  0
    3.8758    0.4670    0.5539 C   0  0  0  0  0  0  0  0  0  0  0  0
    3.7065    1.5759    1.5855 C   0  0  0  0  0  0  0  0  0  0  0  0
    4.1316    1.1392    2.9983 C   0  0  0  0  0  0  0  0  0  0  0  0
    4.4677    2.8435    1.1546 C   0  0  0  0  0  0  0  0  0  0  0  0
    1.9539   -1.2804   -2.2910 C   0  0  0  0  0  0  0  0  0  0  0  0
    2.0064   -2.7104   -2.8341 C   0  0  0  0  0  0  0  0  0  0  0  0
    1.8885   -0.2508   -3.4322 C   0  0  0  0  0  0  0  0  0  0  0  0
   -4.8866    0.0403   -0.9330 C   0  0  0  0  0  0  0  0  0  0  0  0
   -3.2702   -0.1642    1.8479 C   0  0  0  0  0  0  0  0  0  0  0  0
   -5.4664   -1.3622   -1.1809 C   0  0  0  0  0  0  0  0  0  0  0  0
   -5.9152    0.9468   -0.2366 C   0  0  0  0  0  0  0  0  0  0  0  0
   -4.2104   -1.2867    2.3150 C   0  0  0  0  0  0  0  0  0  0  0  0
   -3.5632    1.1537    2.5805 C   0  0  0  0  0  0  0  0  0  0  0  0
   -2.3924   -2.8975    0.5002 H   0  0  0  0  0  0  0  0  0  0  0  0
   -1.2210   -3.2657   -0.8047 H   0  0  0  0  0  0  0  0  0  0  0  0
   -2.9428   -3.0374   -1.1843 H   0  0  0  0  0  0  0  0  0  0  0  0
   -1.4627    0.0852   -2.5905 H   0  0  0  0  0  0  0  0  0  0  0  0
   -2.6120   -1.2596   -2.8533 H   0  0  0  0  0  0  0  0  0  0  0  0
   -0.8771   -1.6006   -2.7055 H   0  0  0  0  0  0  0  0  0  0  0  0
   -3.8019    3.1770   -0.5569 H   0  0  0  0  0  0  0  0  0  0  0  0
   -2.1661    5.0383   -1.0049 H   0  0  0  0  0  0  0  0  0  0  0  0
    0.3414    4.4668   -1.0872 H   0  0  0  0  0  0  0  0  0  0  0  0
    4.4900   -2.3601   -2.1052 H   0  0  0  0  0  0  0  0  0  0  0  0
    6.3106   -1.7250   -0.5166 H   0  0  0  0  0  0  0  0  0  0  0  0
    5.9224    0.0783    1.1586 H   0  0  0  0  0  0  0  0  0  0  0  0
    2.6262    1.8313    1.6140 H   0  0  0  0  0  0  0  0  0  0  0  0
    3.8833    1.9269    3.7390 H   0  0  0  0  0  0  0  0  0  0  0  0
    5.2265    0.9704    3.0597 H   0  0  0  0  0  0  0  0  0  0  0  0
    3.6340    0.2007    3.3149 H   0  0  0  0  0  0  0  0  0  0  0  0
    4.2917    3.6698    1.8747 H   0  0  0  0  0  0  0  0  0  0  0  0
    4.1294    3.1647    0.1521 H   0  0  0  0  0  0  0  0  0  0  0  0
    5.5608    2.6501    1.1226 H   0  0  0  0  0  0  0  0  0  0  0  0
    1.0066   -1.1908   -1.7001 H   0  0  0  0  0  0  0  0  0  0  0  0
    2.8776   -2.8701   -3.5032 H   0  0  0  0  0  0  0  0  0  0  0  0
    1.0978   -2.9279   -3.4323 H   0  0  0  0  0  0  0  0  0  0  0  0
    2.0648   -3.4603   -2.0187 H   0  0  0  0  0  0  0  0  0  0  0  0
    0.9836   -0.4037   -4.0563 H   0  0  0  0  0  0  0  0  0  0  0  0
    2.7786   -0.3523   -4.0880 H   0  0  0  0  0  0  0  0  0  0  0  0
    1.8816    0.7872   -3.0481 H   0  0  0  0  0  0  0  0  0  0  0  0
   -4.6558    0.4878   -1.9280 H   0  0  0  0  0  0  0  0  0  0  0  0
   -2.2248   -0.4577    2.0956 H   0  0  0  0  0  0  0  0  0  0  0  0
   -5.6651   -1.9022   -0.2320 H   0  0  0  0  0  0  0  0  0  0  0  0
   -4.7854   -1.9949   -1.7842 H   0  0  0  0  0  0  0  0  0  0  0  0
   -6.4328   -1.3018   -1.7278 H   0  0  0  0  0  0  0  0  0  0  0  0
   -5.5401    1.9769   -0.0687 H   0  0  0  0  0  0  0  0  0  0  0  0
   -6.2078    0.5426    0.7545 H   0  0  0  0  0  0  0  0  0  0  0  0
   -6.8466    1.0306   -0.8383 H   0  0  0  0  0  0  0  0  0  0  0  0
   -4.1220   -1.4516    3.4113 H   0  0  0  0  0  0  0  0  0  0  0  0
   -4.0053   -2.2554    1.8159 H   0  0  0  0  0  0  0  0  0  0  0  0
   -5.2726   -1.0364    2.1140 H   0  0  0  0  0  0  0  0  0  0  0  0
   -4.5759    1.5413    2.3445 H   0  0  0  0  0  0  0  0  0  0  0  0
   -2.8357    1.9470    2.3154 H   0  0  0  0  0  0  0  0  0  0  0  0
   -3.5203    1.0133    3.6830 H   0  0  0  0  0  0  0  0  0  0  0  0
  1 27  1  0  0  0  0
  2 13  2  0  0  0  0
  3  8  1  0  0  0  0
  5  6  1  0  0  0  0
  5  1  1  0  0  0  0
  6 32  1  0  0  0  0
  7  5  1  0  0  0  0
  8  1  1  1  0  0  0
  9 38  1  0  0  0  0
  9  8  1  0  0  0  0
 10  9  2  0  0  0  0
 11 10  1  0  0  0  0
 11 12  2  0  0  0  0
 12  3  1  0  0  0  0
 13 12  1  0  0  0  0
 13  4  1  0  0  0  0
 14  4  1  0  0  0  0
 14 19  1  0  0  0  0
 15 14  2  0  0  0  0
 16 15  1  0  0  0  0
 16 17  2  0  0  0  0
 17 18  1  0  0  0  0
 18 19  2  0  0  0  0
 18 43  1  0  0  0  0
 19 20  1  0  0  0  0
 20 44  1  0  0  0  0
 20 21  1  0  0  0  0
 21 46  1  0  0  0  0
 21 47  1  0  0  0  0
 21 45  1  0  0  0  0
 22 20  1  0  0  0  0
 22 48  1  0  0  0  0
 23 51  1  0  0  0  0
 23 15  1  0  0  0  0
 24 23  1  0  0  0  0
 24 54  1  0  0  0  0
 25 57  1  0  0  0  0
 25 23  1  0  0  0  0
 26 29  1  0  0  0  0
 26  1  1  0  0  0  0
 27 59  1  0  0  0  0
 27 30  1  0  0  0  0
 27 31  1  0  0  0  0
 28 26  1  0  0  0  0
 28 60  1  0  0  0  0
 29 63  1  0  0  0  0
 29 64  1  0  0  0  0
 30 66  1  0  0  0  0
 31 71  1  0  0  0  0
 33  6  1  0  0  0  0
 34  6  1  0  0  0  0
 35  7  1  0  0  0  0
 36  7  1  0  0  0  0
 37  7  1  0  0  0  0
 39 10  1  0  0  0  0
 40 11  1  0  0  0  0
 41 16  1  0  0  0  0
 42 17  1  0  0  0  0
 49 22  1  0  0  0  0
 50 22  1  0  0  0  0
 52 24  1  0  0  0  0
 53 24  1  0  0  0  0
 55 25  1  0  0  0  0
 56 25  1  0  0  0  0
 58 26  1  0  0  0  0
 61 28  1  0  0  0  0
 62 28  1  0  0  0  0
 65 29  1  0  0  0  0
 67 30  1  0  0  0  0
 68 30  1  0  0  0  0
 69 31  1  0  0  0  0
 70 31  1  0  0  0  0
M  END
