2,3,14
 OpenBabel05122313063D

 49 52  0  0  0  0  0  0  0  0999 V2000
   -5.2804    1.0876    2.6386 O   0  0  0  0  0  0  0  0  0  0  0  0
   -1.8223   -1.2400   -0.8075 N   0  0  0  0  0  2  0  0  0  0  0  0
   -0.2136    0.9973   -1.2862 N   0  0  0  0  0  0  0  0  0  0  0  0
    2.9632   -1.0521    0.7310 N   0  0  0  0  0  0  0  0  0  0  0  0
   -2.5847   -2.2202   -0.2842 C   0  0  0  0  0  3  0  0  0  0  0  0
   -3.9782   -2.2134   -0.4087 C   0  0  0  0  0  0  0  0  0  0  0  0
   -4.5927   -1.1462   -1.0807 C   0  0  0  0  0  0  0  0  0  0  0  0
   -3.7917   -0.1313   -1.6239 C   0  0  0  0  0  0  0  0  0  0  0  0
   -2.4009   -0.2135   -1.4779 C   0  0  0  0  0  0  0  0  0  0  0  0
   -1.4360    0.7612   -2.1075 C   0  0  0  0  0  0  0  0  0  0  0  0
    0.8936    1.4430   -2.1905 C   0  0  0  0  0  0  0  0  0  0  0  0
    2.1895    1.8304   -1.4837 C   0  0  0  0  0  0  0  0  0  0  0  0
    2.7450    0.7844   -0.5662 C   0  0  0  0  0  0  0  0  0  0  0  0
    2.0873   -0.3571   -0.0857 C   0  0  0  0  0  3  0  0  0  0  0  0
    4.1794   -0.4091    0.7996 C   0  0  0  0  0  0  0  0  0  0  0  0
    5.3602   -0.7380    1.4866 C   0  0  0  0  0  0  0  0  0  0  0  0
    6.4520    0.1315    1.3623 C   0  0  0  0  0  0  0  0  0  0  0  0
    6.3699    1.3031    0.5707 C   0  0  0  0  0  0  0  0  0  0  0  0
    5.1946    1.6303   -0.1159 C   0  0  0  0  0  0  0  0  0  0  0  0
    4.0762    0.7728   -0.0125 C   0  0  0  0  0  0  0  0  0  0  0  0
   -0.4538    2.0425   -0.2249 C   0  0  0  0  0  0  0  0  0  0  0  0
   -1.7010    1.8270    0.5888 C   0  0  0  0  0  0  0  0  0  0  0  0
   -2.8721    2.5673    0.3288 C   0  0  0  0  0  0  0  0  0  0  0  0
   -4.0618    2.3218    1.0218 C   0  0  0  0  0  0  0  0  0  0  0  0
   -4.0996    1.3129    2.0052 C   0  0  0  0  0  0  0  0  0  0  0  0
   -2.9254    0.5892    2.3023 C   0  0  0  0  0  0  0  0  0  0  0  0
   -1.7417    0.8520    1.6063 C   0  0  0  0  0  0  0  0  0  0  0  0
   -5.1472    0.3832    3.3002 H   0  0  0  0  0  0  0  0  0  0  0  0
   -2.0227   -3.0070    0.2471 H   0  0  0  0  0  0  0  0  0  0  0  0
   -4.5696   -3.0307    0.0280 H   0  0  0  0  0  0  0  0  0  0  0  0
   -5.6876   -1.0985   -1.1767 H   0  0  0  0  0  0  0  0  0  0  0  0
   -4.2387    0.7252   -2.1480 H   0  0  0  0  0  0  0  0  0  0  0  0
   -1.9391    1.7223   -2.3543 H   0  0  0  0  0  0  0  0  0  0  0  0
   -1.0896    0.3172   -3.0649 H   0  0  0  0  0  0  0  0  0  0  0  0
    1.0800    0.6010   -2.8866 H   0  0  0  0  0  0  0  0  0  0  0  0
    0.5237    2.3130   -2.7838 H   0  0  0  0  0  0  0  0  0  0  0  0
    2.9211    2.0555   -2.2916 H   0  0  0  0  0  0  0  0  0  0  0  0
    2.0549    2.8032   -0.9560 H   0  0  0  0  0  0  0  0  0  0  0  0
    2.7029   -1.9544    1.1375 H   0  0  0  0  0  0  0  0  0  0  0  0
    5.4239   -1.6486    2.1014 H   0  0  0  0  0  0  0  0  0  0  0  0
    7.3898   -0.1007    1.8898 H   0  0  0  0  0  0  0  0  0  0  0  0
    7.2466    1.9646    0.4959 H   0  0  0  0  0  0  0  0  0  0  0  0
    5.1441    2.5445   -0.7285 H   0  0  0  0  0  0  0  0  0  0  0  0
    0.4457    2.0321    0.4187 H   0  0  0  0  0  0  0  0  0  0  0  0
   -0.5093    3.0321   -0.7346 H   0  0  0  0  0  0  0  0  0  0  0  0
   -2.8542    3.3553   -0.4418 H   0  0  0  0  0  0  0  0  0  0  0  0
   -4.9759    2.8973    0.8180 H   0  0  0  0  0  0  0  0  0  0  0  0
   -2.9424   -0.1870    3.0851 H   0  0  0  0  0  0  0  0  0  0  0  0
   -0.8337    0.2697    1.8323 H   0  0  0  0  0  0  0  0  0  0  0  0
  1 28  1  0  0  0  0
  2  5  1  0  0  0  0
  3 21  1  0  0  0  0
  4 15  1  0  0  0  0
  4 39  1  0  0  0  0
  5 29  1  0  0  0  0
  6  5  1  0  0  0  0
  6 30  1  0  0  0  0
  7  6  2  0  0  0  0
  8  9  2  0  0  0  0
  8  7  1  0  0  0  0
  9  2  1  0  0  0  0
 10  9  1  0  0  0  0
 10  3  1  0  0  0  0
 11 12  1  0  0  0  0
 11  3  1  0  0  0  0
 12 38  1  0  0  0  0
 12 13  1  0  0  0  0
 13 14  2  0  0  0  0
 13 20  1  0  0  0  0
 14  4  1  0  0  0  0
 15 16  1  0  0  0  0
 16 40  1  0  0  0  0
 17 16  2  0  0  0  0
 17 41  1  0  0  0  0
 18 17  1  0  0  0  0
 19 20  1  0  0  0  0
 19 18  2  0  0  0  0
 20 15  2  0  0  0  0
 21 44  1  0  0  0  0
 21 22  1  0  0  0  0
 22 27  1  0  0  0  0
 23 22  2  0  0  0  0
 23 24  1  0  0  0  0
 24 25  2  0  0  0  0
 25 26  1  0  0  0  0
 25  1  1  0  0  0  0
 26 48  1  0  0  0  0
 27 49  1  0  0  0  0
 27 26  2  0  0  0  0
 31  7  1  0  0  0  0
 32  8  1  0  0  0  0
 33 10  1  0  0  0  0
 34 10  1  0  0  0  0
 35 11  1  0  0  0  0
 36 11  1  0  0  0  0
 37 12  1  0  0  0  0
 42 18  1  0  0  0  0
 43 19  1  0  0  0  0
 45 21  1  0  0  0  0
 46 23  1  0  0  0  0
 47 24  1  0  0  0  0
M  END
