3,4,5
 OpenBabel05122313063D

 40 42  0  0  0  0  0  0  0  0999 V2000
    1.3499   -3.2369    0.0011 O   0  0  0  0  0  0  0  0  0  0  0  0
    1.9334   -0.9913   -0.0175 N   0  0  0  0  0  0  0  0  0  0  0  0
   -0.2629   -1.5303   -0.0092 N   0  0  0  0  0  2  0  0  0  0  0  0
   -2.4371   -0.1615   -0.0499 N   0  0  0  0  0  2  0  0  0  0  0  0
    1.4008    0.3508   -0.0450 C   0  0  0  0  0  3  0  0  0  0  0  0
    1.7014    0.8801   -0.9836 H   0  0  0  0  0  0  0  0  0  0  0  0
    1.7942    0.9395    0.8160 H   0  0  0  0  0  0  0  0  0  0  0  0
    1.0361   -2.0409   -0.0081 C   0  0  0  0  0  0  0  0  0  0  0  0
    3.3626   -1.2662    0.0030 C   0  0  0  0  0  0  0  0  0  0  0  0
    3.4191   -2.3775   -0.0093 H   0  0  0  0  0  0  0  0  0  0  0  0
    4.0450   -0.7663    1.2901 C   0  0  0  0  0  0  0  0  0  0  0  0
    3.5223   -1.1969    2.1694 H   0  0  0  0  0  0  0  0  0  0  0  0
    3.9349    0.3397    1.3601 H   0  0  0  0  0  0  0  0  0  0  0  0
    5.5365   -1.1258    1.3076 C   0  0  0  0  0  0  0  0  0  0  0  0
    6.0168   -0.7351    2.2295 H   0  0  0  0  0  0  0  0  0  0  0  0
    5.6419   -2.2333    1.3463 H   0  0  0  0  0  0  0  0  0  0  0  0
    6.2567   -0.5980    0.0597 C   0  0  0  0  0  0  0  0  0  0  0  0
    7.3262   -0.8962    0.0733 H   0  0  0  0  0  0  0  0  0  0  0  0
    6.2420    0.5158    0.0739 H   0  0  0  0  0  0  0  0  0  0  0  0
    5.5777   -1.0929   -1.2242 C   0  0  0  0  0  0  0  0  0  0  0  0
    5.6843   -2.1991   -1.2881 H   0  0  0  0  0  0  0  0  0  0  0  0
    6.0879   -0.6787   -2.1194 H   0  0  0  0  0  0  0  0  0  0  0  0
    4.0867   -0.7323   -1.2461 C   0  0  0  0  0  0  0  0  0  0  0  0
    3.9793    0.3753   -1.2887 H   0  0  0  0  0  0  0  0  0  0  0  0
    3.5931   -1.1367   -2.1543 H   0  0  0  0  0  0  0  0  0  0  0  0
   -1.3939   -2.3048   -0.0176 C   0  0  0  0  0  0  0  0  0  0  0  0
   -1.5089   -3.7107   -0.0084 C   0  0  0  0  0  0  0  0  0  0  0  0
   -0.5881   -4.3051    0.0107 H   0  0  0  0  0  0  0  0  0  0  0  0
   -2.7860   -4.3152   -0.0264 C   0  0  0  0  0  0  0  0  0  0  0  0
   -2.8399   -5.4153   -0.0181 H   0  0  0  0  0  0  0  0  0  0  0  0
   -3.9681   -3.5770   -0.0575 C   0  0  0  0  0  3  0  0  0  0  0  0
   -4.9515   -4.0689   -0.0762 H   0  0  0  0  0  0  0  0  0  0  0  0
   -3.8972   -2.1571   -0.0695 C   0  0  0  0  0  0  0  0  0  0  0  0
   -5.0298   -1.2975   -0.1127 C   0  0  0  0  0  0  0  0  0  0  0  0
   -6.0400   -1.7351   -0.1350 H   0  0  0  0  0  0  0  0  0  0  0  0
   -4.8462    0.0782   -0.1303 C   0  0  0  0  0  0  0  0  0  0  0  0
   -5.7001    0.7699   -0.1679 H   0  0  0  0  0  0  0  0  0  0  0  0
   -3.5359    0.6057   -0.0965 C   0  0  0  0  0  0  0  0  0  0  0  0
   -3.3840    1.6927   -0.1060 H   0  0  0  0  0  0  0  0  0  0  0  0
   -2.6054   -1.5314   -0.0430 C   0  0  0  0  0  0  0  0  0  0  0  0
  2  8  1  0  0  0  0
  2  9  1  0  0  0  0
  3  8  1  0  0  0  0
  4 40  1  0  0  0  0
  5  2  1  0  0  0  0
  5  7  1  0  0  0  0
  6  5  1  0  0  0  0
  8  1  2  0  0  0  0
  9 11  1  0  0  0  0
 10  9  1  0  0  0  0
 11 14  1  0  0  0  0
 11 13  1  0  0  0  0
 11 12  1  0  0  0  0
 14 16  1  0  0  0  0
 14 15  1  0  0  0  0
 17 18  1  0  0  0  0
 17 19  1  0  0  0  0
 17 14  1  0  0  0  0
 20 17  1  0  0  0  0
 21 20  1  0  0  0  0
 22 20  1  0  0  0  0
 23 20  1  0  0  0  0
 23  9  1  0  0  0  0
 24 23  1  0  0  0  0
 25 23  1  0  0  0  0
 26  3  1  0  0  0  0
 26 27  1  0  0  0  0
 27 28  1  0  0  0  0
 29 30  1  0  0  0  0
 29 27  2  0  0  0  0
 31 29  1  0  0  0  0
 32 31  1  0  0  0  0
 33 31  1  0  0  0  0
 33 40  1  0  0  0  0
 34 33  2  0  0  0  0
 35 34  1  0  0  0  0
 36 34  1  0  0  0  0
 36 38  2  0  0  0  0
 37 36  1  0  0  0  0
 38  4  1  0  0  0  0
 39 38  1  0  0  0  0
 40 26  2  0  0  0  0
M  END
