2,3,4
 OpenBabel05122313063D

 31 31  0  0  0  0  0  0  0  0999 V2000
    4.9373   -1.3884    0.0499 F   0  0  0  0  0  0  0  0  0  0  0  0
   -0.3292    1.8207   -0.0929 N   0  0  0  0  0  2  0  0  0  0  0  0
    1.6061    0.0809   -0.0234 C   0  0  0  0  0  2  0  0  0  0  0  0
   -2.6261   -0.4255   -0.0186 N   0  0  0  0  0  0  0  0  0  0  0  0
    2.6295   -0.8811   -0.0069 C   0  0  0  0  0  0  0  0  0  0  0  0
    2.3969   -1.9553   -0.0193 H   0  0  0  0  0  0  0  0  0  0  0  0
    3.9653   -0.4576    0.0342 C   0  0  0  0  0  0  0  0  0  0  0  0
    4.3464    0.8966    0.0620 C   0  0  0  0  0  0  0  0  0  0  0  0
    5.4131    1.1574    0.0951 H   0  0  0  0  0  0  0  0  0  0  0  0
    3.3406    1.8647    0.0462 C   0  0  0  0  0  0  0  0  0  0  0  0
    3.6033    2.9342    0.0662 H   0  0  0  0  0  0  0  0  0  0  0  0
    1.9856    1.4674    0.0013 C   0  0  0  0  0  0  0  0  0  0  0  0
    0.8671    2.3650   -0.0334 C   0  0  0  0  0  0  0  0  0  0  0  0
    0.9744    3.4657   -0.0203 H   0  0  0  0  0  0  0  0  0  0  0  0
   -1.5115    2.6641   -0.1948 C   0  0  0  0  0  0  0  0  0  0  0  0
   -1.7460    2.8127   -1.2746 H   0  0  0  0  0  0  0  0  0  0  0  0
   -1.2835    3.6673    0.2273 H   0  0  0  0  0  0  0  0  0  0  0  0
   -2.7415    2.0710    0.4925 C   0  0  0  0  0  0  0  0  0  0  0  0
   -3.5218    2.8597    0.5172 H   0  0  0  0  0  0  0  0  0  0  0  0
   -2.5086    1.8325    1.5513 H   0  0  0  0  0  0  0  0  0  0  0  0
   -3.3345    0.8617   -0.2303 C   0  0  0  0  0  0  0  0  0  0  0  0
   -4.4018    0.7255    0.0653 H   0  0  0  0  0  0  0  0  0  0  0  0
   -3.3310    1.0632   -1.3215 H   0  0  0  0  0  0  0  0  0  0  0  0
   -3.0545   -1.3813   -1.0655 C   0  0  0  0  0  0  0  0  0  0  0  0
   -4.1576   -1.5366   -1.0260 H   0  0  0  0  0  0  0  0  0  0  0  0
   -2.5247   -2.3385   -0.9092 H   0  0  0  0  0  0  0  0  0  0  0  0
   -2.7735   -0.9839   -2.0590 H   0  0  0  0  0  0  0  0  0  0  0  0
   -2.9568   -0.9829    1.3131 C   0  0  0  0  0  0  0  0  0  0  0  0
   -4.0536   -1.1663    1.3975 H   0  0  0  0  0  0  0  0  0  0  0  0
   -2.6410   -0.2810    2.1068 H   0  0  0  0  0  0  0  0  0  0  0  0
   -2.3996   -1.9287    1.4445 H   0  0  0  0  0  0  0  0  0  0  0  0
  2 13  1  0  0  0  0
  3  5  1  0  0  0  0
  3 12  1  0  0  0  0
  4 28  1  0  0  0  0
  5  7  2  0  0  0  0
  6  5  1  0  0  0  0
  7  1  1  0  0  0  0
  7  8  1  0  0  0  0
  8  9  1  0  0  0  0
 10  8  2  0  0  0  0
 10 11  1  0  0  0  0
 12 10  1  0  0  0  0
 13 14  1  0  0  0  0
 13 12  2  0  0  0  0
 15  2  1  0  0  0  0
 15 17  1  0  0  0  0
 15 18  1  0  0  0  0
 16 15  1  0  0  0  0
 18 19  1  0  0  0  0
 18 20  1  0  0  0  0
 21  4  1  0  0  0  0
 21 22  1  0  0  0  0
 21 18  1  0  0  0  0
 23 21  1  0  0  0  0
 24 25  1  0  0  0  0
 24 26  1  0  0  0  0
 24  4  1  0  0  0  0
 27 24  1  0  0  0  0
 28 29  1  0  0  0  0
 28 31  1  0  0  0  0
 28 30  1  0  0  0  0
M  END
