15,16,17
 OpenBabel05122313063D

 66 66  0  0  0  0  0  0  0  0999 V2000
    1.0510    1.8877    1.1493 Si  0  0  0  0  0  0  0  0  0  0  0  0
   -2.4803   -1.0925    0.4079 F   0  0  0  0  0  0  0  0  0  0  0  0
   -2.5822    0.2250   -1.3625 F   0  0  0  0  0  0  0  0  0  0  0  0
   -4.3880    0.2602    1.6663 F   0  0  0  0  0  0  0  0  0  0  0  0
   -4.3745    1.8770    0.1611 F   0  0  0  0  0  0  0  0  0  0  0  0
   -4.9029   -1.5084   -0.6468 F   0  0  0  0  0  0  0  0  0  0  0  0
   -5.3248    0.3714   -1.7263 F   0  0  0  0  0  0  0  0  0  0  0  0
   -6.7287   -1.0752    1.1560 F   0  0  0  0  0  0  0  0  0  0  0  0
   -6.9324    1.0620    0.6373 F   0  0  0  0  0  0  0  0  0  0  0  0
   -7.4535   -1.5688   -1.6450 F   0  0  0  0  0  0  0  0  0  0  0  0
   -8.0519    0.5574   -1.6623 F   0  0  0  0  0  0  0  0  0  0  0  0
   -9.1146   -2.1114    0.3689 F   0  0  0  0  0  0  0  0  0  0  0  0
   -9.5115    0.0071    0.7441 F   0  0  0  0  0  0  0  0  0  0  0  0
  -10.1525   -0.9149   -1.1293 F   0  0  0  0  0  0  0  0  0  0  0  0
    6.3573   -2.0534    0.9514 N   0  0  0  0  0  0  0  0  0  0  0  0
    7.0860    1.0123   -1.4617 N   0  0  0  0  0  0  0  0  0  0  0  0
    5.2841    0.1019    0.1005 C   0  0  0  0  0  3  0  0  0  0  0  0
    4.3606   -0.6506    0.8513 C   0  0  0  0  0  0  0  0  0  0  0  0
    3.1110   -0.1035    1.1719 C   0  0  0  0  0  0  0  0  0  0  0  0
    2.7538    1.1966    0.7255 C   0  0  0  0  0  0  0  0  0  0  0  0
    3.6914    1.9362   -0.0396 C   0  0  0  0  0  0  0  0  0  0  0  0
    4.9513    1.3963   -0.3389 C   0  0  0  0  0  0  0  0  0  0  0  0
    4.8606   -2.0383    1.1306 C   0  0  0  0  0  0  0  0  0  0  0  0
    7.0355   -1.6486    2.2057 C   0  0  0  0  0  0  0  0  0  0  0  0
    6.8011   -3.4085    0.5588 C   0  0  0  0  0  0  0  0  0  0  0  0
    6.1026    2.0697   -1.0282 C   0  0  0  0  0  0  0  0  0  0  0  0
    6.7161    0.4723   -2.7917 C   0  0  0  0  0  0  0  0  0  0  0  0
    8.4474    1.5873   -1.5178 C   0  0  0  0  0  0  0  0  0  0  0  0
    0.7951    1.8829    3.0270 C   0  0  0  0  0  0  0  0  0  0  0  0
    0.8531    3.6447    0.4747 C   0  0  0  0  0  0  0  0  0  0  0  0
   -0.2588    0.7526    0.3520 C   0  0  0  0  0  0  0  0  0  0  0  0
   -1.7090    1.1385    0.6548 C   0  0  0  0  0  0  0  0  0  0  0  0
   -2.7079    0.1935    0.0021 C   0  0  0  0  0  0  0  0  0  0  0  0
   -4.1887    0.5426    0.3494 C   0  0  0  0  0  0  0  0  0  0  0  0
   -5.2637   -0.2126   -0.5045 C   0  0  0  0  0  0  0  0  0  0  0  0
   -6.6926   -0.1758    0.1423 C   0  0  0  0  0  0  0  0  0  0  0  0
   -7.8323   -0.5196   -0.8751 C   0  0  0  0  0  0  0  0  0  0  0  0
   -9.1891   -0.8984   -0.1949 C   0  0  0  0  0  0  0  0  0  0  0  0
    2.3925   -0.6957    1.7663 H   0  0  0  0  0  0  0  0  0  0  0  0
    3.4322    2.9488   -0.3921 H   0  0  0  0  0  0  0  0  0  0  0  0
    4.4412   -2.7451    0.3838 H   0  0  0  0  0  0  0  0  0  0  0  0
    4.5945   -2.4367    2.1365 H   0  0  0  0  0  0  0  0  0  0  0  0
    8.1189   -1.5589    2.0020 H   0  0  0  0  0  0  0  0  0  0  0  0
    6.8617   -2.4060    3.0054 H   0  0  0  0  0  0  0  0  0  0  0  0
    6.6423   -0.6705    2.5384 H   0  0  0  0  0  0  0  0  0  0  0  0
    6.3295   -3.6826   -0.4032 H   0  0  0  0  0  0  0  0  0  0  0  0
    6.5100   -4.1489    1.3383 H   0  0  0  0  0  0  0  0  0  0  0  0
    7.8958   -3.3958    0.4116 H   0  0  0  0  0  0  0  0  0  0  0  0
    6.6363    2.7288   -0.3112 H   0  0  0  0  0  0  0  0  0  0  0  0
    5.8188    2.7039   -1.8992 H   0  0  0  0  0  0  0  0  0  0  0  0
    6.8192    1.2592   -3.5749 H   0  0  0  0  0  0  0  0  0  0  0  0
    5.6695    0.1170   -2.7675 H   0  0  0  0  0  0  0  0  0  0  0  0
    7.3870   -0.3766   -3.0215 H   0  0  0  0  0  0  0  0  0  0  0  0
    9.1565    0.7953   -1.8180 H   0  0  0  0  0  0  0  0  0  0  0  0
    8.7361    1.9409   -0.5104 H   0  0  0  0  0  0  0  0  0  0  0  0
    8.4746    2.4413   -2.2323 H   0  0  0  0  0  0  0  0  0  0  0  0
   -0.2124    2.2544    3.3069 H   0  0  0  0  0  0  0  0  0  0  0  0
    1.5458    2.5304    3.5242 H   0  0  0  0  0  0  0  0  0  0  0  0
    0.9077    0.8601    3.4418 H   0  0  0  0  0  0  0  0  0  0  0  0
    0.9642    3.6708   -0.6287 H   0  0  0  0  0  0  0  0  0  0  0  0
    1.6082    4.3299    0.9113 H   0  0  0  0  0  0  0  0  0  0  0  0
   -0.1482    4.0529    0.7226 H   0  0  0  0  0  0  0  0  0  0  0  0
   -0.0906    0.7501   -0.7457 H   0  0  0  0  0  0  0  0  0  0  0  0
   -0.0690   -0.2872    0.6933 H   0  0  0  0  0  0  0  0  0  0  0  0
   -1.9154    1.1239    1.7448 H   0  0  0  0  0  0  0  0  0  0  0  0
   -1.9428    2.1612    0.2977 H   0  0  0  0  0  0  0  0  0  0  0  0
  1 29  1  0  0  0  0
  3 33  1  0  0  0  0
  5 34  1  0  0  0  0
  6 35  1  0  0  0  0
  7 35  1  0  0  0  0
 10 37  1  0  0  0  0
 11 37  1  0  0  0  0
 14 38  1  0  0  0  0
 15 23  1  0  0  0  0
 15 24  1  0  0  0  0
 16 26  1  0  0  0  0
 17 18  1  0  0  0  0
 18 23  1  0  0  0  0
 18 19  2  0  0  0  0
 19 39  1  0  0  0  0
 20  1  1  0  0  0  0
 20 19  1  0  0  0  0
 21 20  2  0  0  0  0
 22 21  1  0  0  0  0
 22 17  2  0  0  0  0
 23 42  1  0  0  0  0
 24 45  1  0  0  0  0
 24 44  1  0  0  0  0
 25 15  1  0  0  0  0
 25 47  1  0  0  0  0
 26 22  1  0  0  0  0
 26 49  1  0  0  0  0
 27 52  1  0  0  0  0
 27 16  1  0  0  0  0
 28 16  1  0  0  0  0
 28 55  1  0  0  0  0
 29 57  1  0  0  0  0
 29 59  1  0  0  0  0
 29 58  1  0  0  0  0
 30 62  1  0  0  0  0
 30 61  1  0  0  0  0
 30  1  1  0  0  0  0
 31 32  1  0  0  0  0
 31 64  1  0  0  0  0
 31  1  1  0  0  0  0
 32 65  1  0  0  0  0
 33 34  1  0  0  0  0
 33  2  1  0  0  0  0
 33 32  1  0  0  0  0
 34  4  1  0  0  0  0
 35 36  1  0  0  0  0
 35 34  1  0  0  0  0
 36  9  1  0  0  0  0
 36  8  1  0  0  0  0
 37 38  1  0  0  0  0
 37 36  1  0  0  0  0
 38 12  1  0  0  0  0
 38 13  1  0  0  0  0
 40 21  1  0  0  0  0
 41 23  1  0  0  0  0
 43 24  1  0  0  0  0
 46 25  1  0  0  0  0
 48 25  1  0  0  0  0
 50 26  1  0  0  0  0
 51 27  1  0  0  0  0
 53 27  1  0  0  0  0
 54 28  1  0  0  0  0
 56 28  1  0  0  0  0
 60 30  1  0  0  0  0
 63 31  1  0  0  0  0
 66 32  1  0  0  0  0
M  END
