1,2,20
 OpenBabel05122313063D

 31 32  0  0  1  0  0  0  0  0999 V2000
   -1.2402    0.3727   -0.0365 N   0  0  0  0  0  2  0  0  0  0  0  0
    1.2978    1.2721   -0.1619 N   0  0  0  0  0  2  0  0  0  0  0  0
   -2.4984   -0.1389   -0.1272 C   0  0  0  0  0  0  0  0  0  0  0  0
   -3.6135    0.7144   -0.0108 C   0  0  0  0  0  0  0  0  0  0  0  0
   -4.6229    0.2914   -0.0683 H   0  0  0  0  0  0  0  0  0  0  0  0
   -3.4385    2.0875    0.1718 C   0  0  0  0  0  0  0  0  0  0  0  0
   -4.3070    2.7541    0.2742 H   0  0  0  0  0  0  0  0  0  0  0  0
   -2.1412    2.6031    0.1998 C   0  0  0  0  0  0  0  0  0  0  0  0
   -1.9763    3.6820    0.3076 H   0  0  0  0  0  0  0  0  0  0  0  0
   -1.0515    1.7276    0.0815 C   0  0  0  0  0  0  0  0  0  0  0  0
    0.3447    2.2208    0.0357 C   0  0  0  0  0  0  0  0  0  0  0  0
    0.6983    3.5786    0.1526 C   0  0  0  0  0  0  0  0  0  0  0  0
   -0.0677    4.3457    0.3230 H   0  0  0  0  0  0  0  0  0  0  0  0
    2.0438    3.9505    0.0503 C   0  0  0  0  0  0  0  0  0  0  0  0
    2.3325    5.0079    0.1394 H   0  0  0  0  0  0  0  0  0  0  0  0
    3.0115    2.9597   -0.1684 C   0  0  0  0  0  0  0  0  0  0  0  0
    4.0777    3.2087   -0.2624 H   0  0  0  0  0  0  0  0  0  0  0  0
    2.5905    1.6283   -0.2633 C   0  0  0  0  0  0  0  0  0  0  0  0
    3.3076    0.8093   -0.4253 H   0  0  0  0  0  0  0  0  0  0  0  0
   -0.3697   -2.5326    0.2934 C   0  0  0  0  0  3  0  0  0  0  0  0
   -0.2085   -3.0885   -0.6564 H   0  0  0  0  0  0  0  0  0  0  0  0
    0.2155   -3.0248    1.0964 H   0  0  0  0  0  0  0  0  0  0  0  0
   -1.8394   -2.4501    0.6368 C   0  0  0  0  0  0  0  0  0  0  0  0
   -2.2543   -3.4834    0.6454 H   0  0  0  0  0  0  0  0  0  0  0  0
   -1.9994   -2.0536    1.6627 H   0  0  0  0  0  0  0  0  0  0  0  0
   -2.6638   -1.6279   -0.3762 C   0  0  1  0  0  0  0  0  0  0  0  0
   -2.2123   -1.8063   -1.3812 H   0  0  0  0  0  0  0  0  0  0  0  0
   -4.1235   -2.0870   -0.4349 C   0  0  0  0  0  0  0  0  0  0  0  0
   -4.1618   -3.1636   -0.6884 H   0  0  0  0  0  0  0  0  0  0  0  0
   -4.7070   -1.5507   -1.2086 H   0  0  0  0  0  0  0  0  0  0  0  0
   -4.6344   -1.9592    0.5416 H   0  0  0  0  0  0  0  0  0  0  0  0
  1 10  1  0  0  0  0
  2 11  1  0  0  0  0
  3  1  1  0  0  0  0
  3  4  2  0  0  0  0
  4  6  1  0  0  0  0
  5  4  1  0  0  0  0
  6  8  2  0  0  0  0
  6  7  1  0  0  0  0
  8  9  1  0  0  0  0
 10  8  1  0  0  0  0
 11 10  2  0  0  0  0
 11 12  1  0  0  0  0
 12 13  1  0  0  0  0
 14 15  1  0  0  0  0
 14 12  2  0  0  0  0
 16 14  1  0  0  0  0
 17 16  1  0  0  0  0
 18 16  2  0  0  0  0
 18  2  1  0  0  0  0
 19 18  1  0  0  0  0
 20 23  1  0  0  0  0
 20 22  1  0  0  0  0
 21 20  1  0  0  0  0
 23 24  1  0  0  0  0
 23 25  1  0  0  0  0
 26 27  1  6  0  0  0
 26  3  1  0  0  0  0
 26 23  1  0  0  0  0
 28 26  1  0  0  0  0
 28 31  1  0  0  0  0
 29 28  1  0  0  0  0
 30 28  1  0  0  0  0
M  END
