7,8,9
 OpenBabel05122313063D

 35 37  0  0  0  0  0  0  0  0999 V2000
    6.3530   -1.3064    0.8731 F   0  0  0  0  0  0  0  0  0  0  0  0
    5.9237   -1.6491   -1.2348 F   0  0  0  0  0  0  0  0  0  0  0  0
    4.8238   -2.7590    0.2900 F   0  0  0  0  0  0  0  0  0  0  0  0
   -6.3525   -1.3068   -0.8738 F   0  0  0  0  0  0  0  0  0  0  0  0
   -5.9245   -1.6484    1.2345 F   0  0  0  0  0  0  0  0  0  0  0  0
   -4.8238   -2.7591   -0.2891 F   0  0  0  0  0  0  0  0  0  0  0  0
    2.0151    0.2042    0.0119 N   0  0  0  0  0  2  0  0  0  0  0  0
   -2.0150    0.2042   -0.0119 N   0  0  0  0  0  2  0  0  0  0  0  0
    0.0000    1.7934   -0.0000 C   0  0  0  0  0  2  0  0  0  0  0  0
    1.2432    2.4723    0.0080 C   0  0  0  0  0  0  0  0  0  0  0  0
    1.2318    3.8820    0.0081 C   0  0  0  0  0  0  0  0  0  0  0  0
    2.1694    4.4600    0.0142 H   0  0  0  0  0  0  0  0  0  0  0  0
    0.0000    4.5671   -0.0000 C   0  0  0  0  0  0  0  0  0  0  0  0
    0.0000    5.6667    0.0000 H   0  0  0  0  0  0  0  0  0  0  0  0
   -1.2317    3.8820   -0.0081 C   0  0  0  0  0  0  0  0  0  0  0  0
   -2.1694    4.4600   -0.0142 H   0  0  0  0  0  0  0  0  0  0  0  0
   -1.2431    2.4723   -0.0080 C   0  0  0  0  0  0  0  0  0  0  0  0
    2.3771    1.5467    0.0151 C   0  0  0  0  0  0  0  0  0  0  0  0
    3.7413    1.8909    0.0280 C   0  0  0  0  0  0  0  0  0  0  0  0
    4.0250    2.9523    0.0360 H   0  0  0  0  0  0  0  0  0  0  0  0
    4.7169    0.8941    0.0342 C   0  0  0  0  0  0  0  0  0  0  0  0
    5.7850    1.1553    0.0520 H   0  0  0  0  0  0  0  0  0  0  0  0
    4.3189   -0.4568    0.0259 C   0  0  0  0  0  0  0  0  0  0  0  0
    2.9546   -0.7628    0.0167 C   0  0  0  0  0  3  0  0  0  0  0  0
    2.5653   -1.7946    0.0176 H   0  0  0  0  0  0  0  0  0  0  0  0
   -2.3771    1.5467   -0.0151 C   0  0  0  0  0  0  0  0  0  0  0  0
   -3.7413    1.8909   -0.0280 C   0  0  0  0  0  0  0  0  0  0  0  0
   -4.0250    2.9523   -0.0360 H   0  0  0  0  0  0  0  0  0  0  0  0
   -4.7169    0.8941   -0.0342 C   0  0  0  0  0  0  0  0  0  0  0  0
   -5.7850    1.1553   -0.0520 H   0  0  0  0  0  0  0  0  0  0  0  0
   -4.3188   -0.4568   -0.0259 C   0  0  0  0  0  0  0  0  0  0  0  0
   -2.9546   -0.7628   -0.0166 C   0  0  0  0  0  0  0  0  0  0  0  0
   -2.5652   -1.7946   -0.0175 H   0  0  0  0  0  0  0  0  0  0  0  0
    5.3537   -1.5565   -0.0084 C   0  0  0  0  0  0  0  0  0  0  0  0
   -5.3538   -1.5564    0.0084 C   0  0  0  0  0  0  0  0  0  0  0  0
  2 34  1  0  0  0  0
  4 35  1  0  0  0  0
  6 35  1  0  0  0  0
  7 18  1  0  0  0  0
  7 24  1  0  0  0  0
  9 10  1  0  0  0  0
 10 11  2  0  0  0  0
 10 18  1  0  0  0  0
 11 12  1  0  0  0  0
 13 14  1  0  0  0  0
 13 11  1  0  0  0  0
 15 17  1  0  0  0  0
 15 13  2  0  0  0  0
 16 15  1  0  0  0  0
 17  9  1  0  0  0  0
 18 19  2  0  0  0  0
 19 21  1  0  0  0  0
 19 20  1  0  0  0  0
 21 22  1  0  0  0  0
 23 21  2  0  0  0  0
 24 25  1  0  0  0  0
 24 23  1  0  0  0  0
 26  8  1  0  0  0  0
 26 17  2  0  0  0  0
 27 26  1  0  0  0  0
 28 27  1  0  0  0  0
 29 27  2  0  0  0  0
 29 31  1  0  0  0  0
 30 29  1  0  0  0  0
 31 32  2  0  0  0  0
 31 35  1  0  0  0  0
 32  8  1  0  0  0  0
 33 32  1  0  0  0  0
 34 23  1  0  0  0  0
 34  3  1  0  0  0  0
 34  1  1  0  0  0  0
 35  5  1  0  0  0  0
M  END
