1,2,3
 OpenBabel05122313063D

 43 45  0  0  1  0  0  0  0  0999 V2000
   -1.8424    1.2823    0.4589 N   0  0  0  0  0  2  0  0  0  0  0  0
    0.8818    0.8454    0.4835 N   0  0  0  0  0  2  0  0  0  0  0  0
   -2.6880   -0.9243   -0.8089 C   0  0  0  0  0  3  0  0  0  0  0  0
   -3.1619   -2.0942   -1.4178 C   0  0  0  0  0  0  0  0  0  0  0  0
   -4.5310   -2.2432   -1.7045 C   0  0  0  0  0  0  0  0  0  0  0  0
   -5.4571   -1.2335   -1.3852 C   0  0  0  0  0  0  0  0  0  0  0  0
   -5.0109   -0.0642   -0.7616 C   0  0  0  0  0  0  0  0  0  0  0  0
   -3.6387    0.1005   -0.4704 C   0  0  0  0  0  0  0  0  0  0  0  0
   -3.1230    1.2545    0.2484 C   0  0  0  0  0  3  0  0  0  0  0  0
   -1.0695    2.1409    1.3397 C   0  0  2  0  0  0  0  0  0  0  0  0
   -1.6399    3.5452    1.5806 C   0  0  0  0  0  0  0  0  0  0  0  0
   -1.5437    4.4383    0.3376 C   0  0  0  0  0  0  0  0  0  0  0  0
   -0.0981    4.5110   -0.1692 C   0  0  0  0  0  0  0  0  0  0  0  0
    0.4605    3.1136   -0.4609 C   0  0  0  0  0  0  0  0  0  0  0  0
    0.3750    2.2084    0.7801 C   0  0  2  0  0  0  0  0  0  0  0  0
    2.1479    0.6648    0.6544 C   0  0  0  0  0  3  0  0  0  0  0  0
    2.8711   -0.6059    0.5156 C   0  0  0  0  0  0  0  0  0  0  0  0
    2.3693   -1.7917    1.0974 C   0  0  0  0  0  0  0  0  0  0  0  0
    3.1136   -2.9755    1.0474 C   0  0  0  0  0  0  0  0  0  0  0  0
    4.3641   -2.9980    0.4102 C   0  0  0  0  0  0  0  0  0  0  0  0
    4.8831   -1.8327   -0.1767 C   0  0  0  0  0  0  0  0  0  0  0  0
    4.1394   -0.6482   -0.1098 C   0  0  0  0  0  0  0  0  0  0  0  0
    4.8394    0.9259   -0.9371 Br  0  0  0  0  0  0  0  0  0  0  0  0
   -2.4638   -2.9046   -1.6699 H   0  0  0  0  0  0  0  0  0  0  0  0
   -4.8816   -3.1700   -2.1856 H   0  0  0  0  0  0  0  0  0  0  0  0
   -6.5244   -1.3675   -1.6152 H   0  0  0  0  0  0  0  0  0  0  0  0
   -5.7238    0.7284   -0.4831 H   0  0  0  0  0  0  0  0  0  0  0  0
   -3.8067    2.0319    0.6430 H   0  0  0  0  0  0  0  0  0  0  0  0
   -1.0200    1.5734    2.2986 H   0  0  0  0  0  0  0  0  0  0  0  0
   -1.0657    4.0042    2.4140 H   0  0  0  0  0  0  0  0  0  0  0  0
   -2.6846    3.4668    1.9467 H   0  0  0  0  0  0  0  0  0  0  0  0
   -2.1931    4.0307   -0.4675 H   0  0  0  0  0  0  0  0  0  0  0  0
   -1.9289    5.4528    0.5681 H   0  0  0  0  0  0  0  0  0  0  0  0
   -0.0369    5.1357   -1.0839 H   0  0  0  0  0  0  0  0  0  0  0  0
    0.5344    5.0142    0.5965 H   0  0  0  0  0  0  0  0  0  0  0  0
    1.5181    3.1665   -0.7935 H   0  0  0  0  0  0  0  0  0  0  0  0
   -0.1092    2.6443   -1.2867 H   0  0  0  0  0  0  0  0  0  0  0  0
    1.0094    2.6549    1.5785 H   0  0  0  0  0  0  0  0  0  0  0  0
    2.7733    1.5339    0.9595 H   0  0  0  0  0  0  0  0  0  0  0  0
    1.3830   -1.7603    1.5946 H   0  0  0  0  0  0  0  0  0  0  0  0
    2.7073   -3.8879    1.5079 H   0  0  0  0  0  0  0  0  0  0  0  0
    4.9489   -3.9293    0.3642 H   0  0  0  0  0  0  0  0  0  0  0  0
    5.8562   -1.8407   -0.6872 H   0  0  0  0  0  0  0  0  0  0  0  0
  1 10  1  0  0  0  0
  2 16  1  0  0  0  0
  2 15  1  0  0  0  0
  3  8  1  0  0  0  0
  4  3  2  0  0  0  0
  5  4  1  0  0  0  0
  5  6  2  0  0  0  0
  6  7  1  0  0  0  0
  7 27  1  0  0  0  0
  7  8  2  0  0  0  0
  8  9  1  0  0  0  0
  9  1  1  0  0  0  0
  9 28  1  0  0  0  0
 10 11  1  0  0  0  0
 10 29  1  1  0  0  0
 11 31  1  0  0  0  0
 11 30  1  0  0  0  0
 12 33  1  0  0  0  0
 12 11  1  0  0  0  0
 13 12  1  0  0  0  0
 13 35  1  0  0  0  0
 14 13  1  0  0  0  0
 14 15  1  0  0  0  0
 15 10  1  0  0  0  0
 15 38  1  1  0  0  0
 16 39  1  0  0  0  0
 17 16  1  0  0  0  0
 17 18  1  0  0  0  0
 18 40  1  0  0  0  0
 19 18  2  0  0  0  0
 19 41  1  0  0  0  0
 20 19  1  0  0  0  0
 21 22  1  0  0  0  0
 21 20  2  0  0  0  0
 22 17  2  0  0  0  0
 23 22  1  0  0  0  0
 24  4  1  0  0  0  0
 25  5  1  0  0  0  0
 26  6  1  0  0  0  0
 32 12  1  0  0  0  0
 34 13  1  0  0  0  0
 36 14  1  0  0  0  0
 37 14  1  0  0  0  0
 42 20  1  0  0  0  0
 43 21  1  0  0  0  0
M  END
