3,4,7
 OpenBabel05122313063D

 67 69  0  0  0  0  0  0  0  0999 V2000
   -7.3815   -0.4892   -0.7987 O   0  0  0  0  0  0  0  0  0  0  0  0
    6.4295    1.4136    0.3380 O   0  0  0  0  0  0  0  0  0  0  0  0
   -2.1271   -0.4781   -0.3575 N   0  0  0  0  0  2  0  0  0  0  0  0
    1.8296   -1.1506    0.0094 N   0  0  0  0  0  2  0  0  0  0  0  0
   -5.9180    1.2929   -0.7469 N   0  0  0  0  0  0  0  0  0  0  0  0
    6.0056   -0.8532    0.3688 N   0  0  0  0  0  0  0  0  0  0  0  0
    0.1215    0.7511   -0.2021 C   0  0  0  0  0  2  0  0  0  0  0  0
   -0.9822    1.6289   -0.3278 C   0  0  0  0  0  0  0  0  0  0  0  0
   -0.7300    3.0151   -0.3512 C   0  0  0  0  0  0  0  0  0  0  0  0
    0.5957    3.4838   -0.2502 C   0  0  0  0  0  0  0  0  0  0  0  0
    1.6879    2.6010   -0.1253 C   0  0  0  0  0  0  0  0  0  0  0  0
    1.4566    1.2116   -0.0999 C   0  0  0  0  0  0  0  0  0  0  0  0
   -2.2557    0.9041   -0.4151 C   0  0  0  0  0  0  0  0  0  0  0  0
   -3.2285   -1.2559   -0.4267 C   0  0  0  0  0  3  0  0  0  0  0  0
   -4.5168   -0.7396   -0.5558 C   0  0  0  0  0  0  0  0  0  0  0  0
   -4.6784    0.6652   -0.6183 C   0  0  0  0  0  0  0  0  0  0  0  0
   -3.5256    1.4757   -0.5452 C   0  0  0  0  0  0  0  0  0  0  0  0
    2.4169    0.1080    0.0205 C   0  0  0  0  0  0  0  0  0  0  0  0
    2.6044   -2.2514    0.1122 C   0  0  0  0  0  0  0  0  0  0  0  0
    3.9880   -2.1726    0.2316 C   0  0  0  0  0  0  0  0  0  0  0  0
    4.6160   -0.9030    0.2473 C   0  0  0  0  0  0  0  0  0  0  0  0
    3.8063    0.2458    0.1385 C   0  0  0  0  0  0  0  0  0  0  0  0
   -7.1836    0.7184   -0.8424 C   0  0  0  0  0  0  0  0  0  0  0  0
   -8.3069    1.7361   -1.0459 C   0  0  0  0  0  0  0  0  0  0  0  0
   -9.6541    1.2262   -0.5321 C   0  0  0  0  0  0  0  0  0  0  0  0
   -9.7305    1.1258    0.9938 C   0  0  0  0  0  0  0  0  0  0  0  0
  -11.0767    0.6042    1.5046 C   0  0  0  0  0  0  0  0  0  0  0  0
  -11.1504    0.5034    3.0284 C   0  0  0  0  0  0  0  0  0  0  0  0
    6.8382    0.2620    0.4246 C   0  0  0  0  0  0  0  0  0  0  0  0
    8.3104   -0.0825    0.6392 C   0  0  0  0  0  0  0  0  0  0  0  0
    9.2527    1.0092    0.1341 C   0  0  0  0  0  0  0  0  0  0  0  0
   10.7192    0.7570    0.4881 C   0  0  0  0  0  0  0  0  0  0  0  0
   11.6660    1.8492   -0.0188 C   0  0  0  0  0  0  0  0  0  0  0  0
   13.1306    1.6024    0.3435 C   0  0  0  0  0  0  0  0  0  0  0  0
   -5.8890    2.3138   -0.7807 H   0  0  0  0  0  0  0  0  0  0  0  0
    6.4686   -1.7611    0.4408 H   0  0  0  0  0  0  0  0  0  0  0  0
   -1.5519    3.7429   -0.4472 H   0  0  0  0  0  0  0  0  0  0  0  0
    0.7834    4.5674   -0.2694 H   0  0  0  0  0  0  0  0  0  0  0  0
    2.7085    3.0079   -0.0491 H   0  0  0  0  0  0  0  0  0  0  0  0
   -3.0273   -2.3387   -0.3724 H   0  0  0  0  0  0  0  0  0  0  0  0
   -5.3894   -1.3990   -0.6074 H   0  0  0  0  0  0  0  0  0  0  0  0
   -3.6112    2.5719   -0.5898 H   0  0  0  0  0  0  0  0  0  0  0  0
    2.0523   -3.2061    0.0938 H   0  0  0  0  0  0  0  0  0  0  0  0
    4.5763   -3.0988    0.3131 H   0  0  0  0  0  0  0  0  0  0  0  0
    4.2708    1.2377    0.1466 H   0  0  0  0  0  0  0  0  0  0  0  0
   -8.3634    1.9294   -2.1407 H   0  0  0  0  0  0  0  0  0  0  0  0
   -8.0418    2.7079   -0.5737 H   0  0  0  0  0  0  0  0  0  0  0  0
   -9.8330    0.2243   -0.9759 H   0  0  0  0  0  0  0  0  0  0  0  0
  -10.4599    1.8926   -0.9068 H   0  0  0  0  0  0  0  0  0  0  0  0
   -8.9202    0.4553    1.3561 H   0  0  0  0  0  0  0  0  0  0  0  0
   -9.5284    2.1255    1.4429 H   0  0  0  0  0  0  0  0  0  0  0  0
  -11.2712   -0.3935    1.0526 H   0  0  0  0  0  0  0  0  0  0  0  0
  -11.8907    1.2657    1.1319 H   0  0  0  0  0  0  0  0  0  0  0  0
  -10.3698   -0.1794    3.4242 H   0  0  0  0  0  0  0  0  0  0  0  0
  -12.1333    0.1194    3.3679 H   0  0  0  0  0  0  0  0  0  0  0  0
  -10.9949    1.4932    3.5068 H   0  0  0  0  0  0  0  0  0  0  0  0
    8.9141    1.9803    0.5519 H   0  0  0  0  0  0  0  0  0  0  0  0
    9.1415    1.1062   -0.9680 H   0  0  0  0  0  0  0  0  0  0  0  0
   11.0413   -0.2273    0.0774 H   0  0  0  0  0  0  0  0  0  0  0  0
   10.8217    0.6655    1.5938 H   0  0  0  0  0  0  0  0  0  0  0  0
   11.5615    1.9361   -1.1232 H   0  0  0  0  0  0  0  0  0  0  0  0
   11.3370    2.8305    0.3892 H   0  0  0  0  0  0  0  0  0  0  0  0
   13.2708    1.5486    1.4434 H   0  0  0  0  0  0  0  0  0  0  0  0
   13.7892    2.4085   -0.0375 H   0  0  0  0  0  0  0  0  0  0  0  0
   13.4958    0.6439   -0.0815 H   0  0  0  0  0  0  0  0  0  0  0  0
    8.5514   -1.0645    0.1754 H   0  0  0  0  0  0  0  0  0  0  0  0
    8.4526   -0.2243    1.7357 H   0  0  0  0  0  0  0  0  0  0  0  0
  2 29  2  0  0  0  0
  4 18  1  0  0  0  0
  4 19  1  0  0  0  0
  5 16  1  0  0  0  0
  6 29  1  0  0  0  0
  6 36  1  0  0  0  0
  7 12  1  0  0  0  0
  8  7  1  0  0  0  0
  9  8  2  0  0  0  0
  9 10  1  0  0  0  0
 10 11  2  0  0  0  0
 11 12  1  0  0  0  0
 11 39  1  0  0  0  0
 12 18  2  0  0  0  0
 13  3  1  0  0  0  0
 13  8  1  0  0  0  0
 14 40  1  0  0  0  0
 14  3  1  0  0  0  0
 15 14  1  0  0  0  0
 16 15  2  0  0  0  0
 16 17  1  0  0  0  0
 17 13  2  0  0  0  0
 18 22  1  0  0  0  0
 19 20  2  0  0  0  0
 20 21  1  0  0  0  0
 20 44  1  0  0  0  0
 21  6  1  0  0  0  0
 22 45  1  0  0  0  0
 22 21  2  0  0  0  0
 23  1  2  0  0  0  0
 23  5  1  0  0  0  0
 24 23  1  0  0  0  0
 24 47  1  0  0  0  0
 24 25  1  0  0  0  0
 25 26  1  0  0  0  0
 26 50  1  0  0  0  0
 26 51  1  0  0  0  0
 26 27  1  0  0  0  0
 27 28  1  0  0  0  0
 28 55  1  0  0  0  0
 28 54  1  0  0  0  0
 28 56  1  0  0  0  0
 29 30  1  0  0  0  0
 30 67  1  0  0  0  0
 31 32  1  0  0  0  0
 31 57  1  0  0  0  0
 31 30  1  0  0  0  0
 32 60  1  0  0  0  0
 33 34  1  0  0  0  0
 33 62  1  0  0  0  0
 33 32  1  0  0  0  0
 34 63  1  0  0  0  0
 35  5  1  0  0  0  0
 37  9  1  0  0  0  0
 38 10  1  0  0  0  0
 41 15  1  0  0  0  0
 42 17  1  0  0  0  0
 43 19  1  0  0  0  0
 46 24  1  0  0  0  0
 48 25  1  0  0  0  0
 49 25  1  0  0  0  0
 52 27  1  0  0  0  0
 53 27  1  0  0  0  0
 58 31  1  0  0  0  0
 59 32  1  0  0  0  0
 61 33  1  0  0  0  0
 64 34  1  0  0  0  0
 65 34  1  0  0  0  0
 66 30  1  0  0  0  0
M  END
