2,3,5
 OpenBabel05122313063D

 41 43  0  0  0  0  0  0  0  0999 V2000
   -0.6292    2.0828   -0.6739 N   0  0  0  0  0  0  0  0  0  0  0  0
    0.1643    1.3488    0.0234 N   0  0  0  0  0  2  0  0  0  0  0  0
    1.6744   -0.4294    1.4795 N   0  0  0  0  0  0  0  0  0  0  0  0
    1.7489   -0.4408    2.5071 H   0  0  0  0  0  0  0  0  0  0  0  0
   -2.1583    0.3695    0.1299 C   0  0  0  0  0  2  0  0  0  0  0  0
   -3.4546   -0.1443    0.1559 C   0  0  0  0  0  0  0  0  0  0  0  0
   -3.6515   -1.0615    0.7329 H   0  0  0  0  0  0  0  0  0  0  0  0
   -4.5102    0.4923   -0.5450 C   0  0  0  0  0  0  0  0  0  0  0  0
   -4.2439    1.6680   -1.2888 C   0  0  0  0  0  0  0  0  0  0  0  0
   -5.0666    2.1573   -1.8325 H   0  0  0  0  0  0  0  0  0  0  0  0
   -2.9588    2.2094   -1.3411 C   0  0  0  0  0  0  0  0  0  0  0  0
   -2.7394    3.1200   -1.9175 H   0  0  0  0  0  0  0  0  0  0  0  0
   -1.9104    1.5715   -0.6386 C   0  0  0  0  0  0  0  0  0  0  0  0
   -5.8995   -0.0841   -0.4844 C   0  0  0  0  0  0  0  0  0  0  0  0
   -6.6099    0.4734   -1.1245 H   0  0  0  0  0  0  0  0  0  0  0  0
   -6.2881   -0.0679    0.5559 H   0  0  0  0  0  0  0  0  0  0  0  0
   -5.9034   -1.1473   -0.8029 H   0  0  0  0  0  0  0  0  0  0  0  0
    1.5259    1.6738    0.1730 C   0  0  0  0  0  0  0  0  0  0  0  0
    2.1109    2.8283   -0.3848 C   0  0  0  0  0  0  0  0  0  0  0  0
    1.4761    3.4880   -0.9919 H   0  0  0  0  0  0  0  0  0  0  0  0
    3.4591    3.1040   -0.1416 C   0  0  0  0  0  0  0  0  0  0  0  0
    3.9177    4.0061   -0.5733 H   0  0  0  0  0  0  0  0  0  0  0  0
    4.2276    2.2413    0.6618 C   0  0  0  0  0  0  0  0  0  0  0  0
    5.2848    2.4690    0.8633 H   0  0  0  0  0  0  0  0  0  0  0  0
    3.6477    1.0855    1.2074 C   0  0  0  0  0  0  0  0  0  0  0  0
    4.2503    0.4047    1.8277 H   0  0  0  0  0  0  0  0  0  0  0  0
    2.2999    0.7848    0.9638 C   0  0  0  0  0  0  0  0  0  0  0  0
    2.2694   -1.7059    0.9582 C   0  0  0  0  0  0  0  0  0  0  0  0
    3.3496   -1.7604    1.2194 H   0  0  0  0  0  0  0  0  0  0  0  0
    1.7329   -2.5155    1.4910 H   0  0  0  0  0  0  0  0  0  0  0  0
    2.0842   -1.8361   -0.5345 C   0  0  0  0  0  0  0  0  0  0  0  0
    3.0474   -1.3240   -1.4252 C   0  0  0  0  0  0  0  0  0  0  0  0
    3.9704   -0.8729   -1.0283 H   0  0  0  0  0  0  0  0  0  0  0  0
    2.8376   -1.3775   -2.8118 C   0  0  0  0  0  0  0  0  0  0  0  0
    3.5968   -0.9708   -3.4971 H   0  0  0  0  0  0  0  0  0  0  0  0
    1.6618   -1.9503   -3.3212 C   0  0  0  0  0  0  0  0  0  0  0  0
    1.4951   -1.9919   -4.4085 H   0  0  0  0  0  0  0  0  0  0  0  0
    0.7020   -2.4750   -2.4406 C   0  0  0  0  0  0  0  0  0  0  0  0
   -0.2196   -2.9298   -2.8340 H   0  0  0  0  0  0  0  0  0  0  0  0
    0.9089   -2.4178   -1.0547 C   0  0  0  0  0  0  0  0  0  0  0  0
    0.1496   -2.8115   -0.3604 H   0  0  0  0  0  0  0  0  0  0  0  0
  1 13  2  0  0  0  0
  1  2  1  0  0  0  0
  2 18  1  0  0  0  0
  3  4  1  0  0  0  0
  5  6  1  0  0  0  0
  6  7  1  0  0  0  0
  8 14  1  0  0  0  0
  8  6  2  0  0  0  0
  9  8  1  0  0  0  0
 10  9  1  0  0  0  0
 11  9  2  0  0  0  0
 11 13  1  0  0  0  0
 12 11  1  0  0  0  0
 13  5  1  0  0  0  0
 14 16  1  0  0  0  0
 15 14  1  0  0  0  0
 17 14  1  0  0  0  0
 18 27  1  0  0  0  0
 19 21  1  0  0  0  0
 19 18  2  0  0  0  0
 20 19  1  0  0  0  0
 21 23  2  0  0  0  0
 22 21  1  0  0  0  0
 23 24  1  0  0  0  0
 23 25  1  0  0  0  0
 25 26  1  0  0  0  0
 27 25  2  0  0  0  0
 27  3  1  0  0  0  0
 28 29  1  0  0  0  0
 28  3  1  0  0  0  0
 28 30  1  0  0  0  0
 31 28  1  0  0  0  0
 32 33  1  0  0  0  0
 32 31  2  0  0  0  0
 34 32  1  0  0  0  0
 35 34  1  0  0  0  0
 36 34  2  0  0  0  0
 36 38  1  0  0  0  0
 37 36  1  0  0  0  0
 38 40  2  0  0  0  0
 39 38  1  0  0  0  0
 40 31  1  0  0  0  0
 40 41  1  0  0  0  0
M  END
