14,22,30
 OpenBabel05122313063D

 32 33  0  0  0  0  0  0  0  0999 V2000
   -5.0776    0.7047   -0.0856 N   0  0  0  0  0  0  0  0  0  0  0  0
   -5.9709    1.2047   -0.1064 H   0  0  0  0  0  0  0  0  0  0  0  0
   -5.0489   -0.6633    0.0480 C   0  0  0  0  0  0  0  0  0  0  0  0
   -6.2545   -1.3217    0.1327 N   0  0  0  0  0  0  0  0  0  0  0  0
   -6.1703   -2.3371    0.0674 H   0  0  0  0  0  0  0  0  0  0  0  0
   -7.0611   -0.9240   -0.3492 H   0  0  0  0  0  0  0  0  0  0  0  0
   -3.9238   -1.3518    0.1460 N   0  0  0  0  0  0  0  0  0  0  0  0
   -2.8117   -0.5802    0.1116 C   0  0  0  0  0  0  0  0  0  0  0  0
   -2.7373    0.8076   -0.0354 C   0  0  0  0  0  0  0  0  0  0  0  0
   -3.9364    1.5906   -0.1442 C   0  0  0  0  0  0  0  0  0  0  0  0
   -4.1025    2.7996   -0.2621 O   0  0  0  0  0  0  0  0  0  0  0  0
   -1.3962    1.1380   -0.0331 N   0  0  0  0  0  0  0  0  0  0  0  0
   -0.9315    2.0787   -0.1407 H   0  0  0  0  0  0  0  0  0  0  0  0
   -0.6062    0.0344    0.1048 C   0  0  0  0  0  2  0  0  0  0  0  0
   -1.5062   -1.0333    0.1996 N   0  0  0  0  0  0  0  0  0  0  0  0
   -1.1593   -2.4271    0.4048 C   0  0  0  0  0  0  0  0  0  0  0  0
   -2.0577   -3.0192    0.1434 H   0  0  0  0  0  0  0  0  0  0  0  0
   -0.9501   -2.6030    1.4844 H   0  0  0  0  0  0  0  0  0  0  0  0
    0.0336   -2.8783   -0.4267 C   0  0  0  0  0  0  0  0  0  0  0  0
    0.1008   -3.9902   -0.3778 H   0  0  0  0  0  0  0  0  0  0  0  0
   -0.0875   -2.5775   -1.4880 H   0  0  0  0  0  0  0  0  0  0  0  0
    1.2707   -2.2677    0.0778 N   0  0  0  0  0  0  0  0  0  0  0  0
    1.3246   -2.3797    1.1113 H   0  0  0  0  0  0  0  0  0  0  0  0
    2.5035   -2.8004   -0.5325 C   0  0  0  0  0  0  0  0  0  0  0  0
    2.4231   -2.6461   -1.6291 H   0  0  0  0  0  0  0  0  0  0  0  0
    2.6151   -3.8910   -0.3342 H   0  0  0  0  0  0  0  0  0  0  0  0
    3.6956   -2.0311    0.0230 C   0  0  0  0  0  0  0  0  0  0  0  0
    3.7364   -2.1508    1.1259 H   0  0  0  0  0  0  0  0  0  0  0  0
    4.6407   -2.4322   -0.4054 H   0  0  0  0  0  0  0  0  0  0  0  0
    3.5030   -0.5949   -0.2541 N   0  0  0  0  0  0  0  0  0  0  0  0
    4.1857   -0.0310    0.2668 H   0  0  0  0  0  0  0  0  0  0  0  0
    3.5991   -0.3994   -1.2662 H   0  0  0  0  0  0  0  0  0  0  0  0
  1  3  1  0  0  0  0
  2  1  1  0  0  0  0
  3  4  1  0  0  0  0
  3  7  2  0  0  0  0
  5  4  1  0  0  0  0
  6  4  1  0  0  0  0
  8  7  1  0  0  0  0
  8 15  1  0  0  0  0
  9 12  1  0  0  0  0
  9  8  2  0  0  0  0
 10  1  1  0  0  0  0
 10  9  1  0  0  0  0
 11 10  2  0  0  0  0
 12 14  1  0  0  0  0
 13 12  1  0  0  0  0
 14 15  1  0  0  0  0
 15 16  1  0  0  0  0
 16 18  1  0  0  0  0
 17 16  1  0  0  0  0
 19 20  1  0  0  0  0
 19 22  1  0  0  0  0
 19 16  1  0  0  0  0
 21 19  1  0  0  0  0
 22 23  1  0  0  0  0
 24 26  1  0  0  0  0
 24 27  1  0  0  0  0
 24 22  1  0  0  0  0
 25 24  1  0  0  0  0
 27 28  1  0  0  0  0
 29 27  1  0  0  0  0
 30 27  1  0  0  0  0
 30 31  1  0  0  0  0
 32 30  1  0  0  0  0
M  END
