1,2,4
 OpenBabel05122313063D

 62 69  0  0  1  0  0  0  0  0999 V2000
    2.6936   -0.0000   -0.0000 C   0  0  0  0  0  2  0  0  0  0  0  0
    0.6944   -2.0453    0.0048 N   0  0  0  0  0  0  0  0  0  0  0  0
   -1.4937    0.0001   -0.0004 O   0  0  0  0  0  0  0  0  0  0  0  0
    0.6942    2.0454   -0.0054 N   0  0  0  0  0  0  0  0  0  0  0  0
    3.5341    1.1577   -0.0084 C   0  0  0  0  0  0  0  0  0  0  0  0
    4.9435    0.7106   -0.0048 C   0  0  0  0  0  0  0  0  0  0  0  0
    6.1480    1.4224   -0.0096 C   0  0  0  0  0  0  0  0  0  0  0  0
    6.1585    2.5234   -0.0172 H   0  0  0  0  0  0  0  0  0  0  0  0
    7.3596    0.7030   -0.0044 C   0  0  0  0  0  0  0  0  0  0  0  0
    8.3160    1.2477   -0.0081 H   0  0  0  0  0  0  0  0  0  0  0  0
    7.3597   -0.7028    0.0055 C   0  0  0  0  0  0  0  0  0  0  0  0
    8.3161   -1.2475    0.0094 H   0  0  0  0  0  0  0  0  0  0  0  0
    6.1481   -1.4223    0.0104 C   0  0  0  0  0  0  0  0  0  0  0  0
    6.1586   -2.5233    0.0179 H   0  0  0  0  0  0  0  0  0  0  0  0
    4.9435   -0.7106    0.0052 C   0  0  0  0  0  0  0  0  0  0  0  0
    3.5341   -1.1577    0.0085 C   0  0  0  0  0  0  0  0  0  0  0  0
    3.1195   -2.4855    0.0213 C   0  0  0  0  0  0  0  0  0  0  0  0
    3.8770   -3.2840    0.0326 H   0  0  0  0  0  0  0  0  0  0  0  0
    1.7772   -2.8955    0.0236 C   0  0  0  0  0  3  0  0  0  0  0  0
    1.3272   -4.2650    0.0539 C   0  0  0  0  0  0  0  0  0  0  0  0
    1.9883   -5.1394    0.0781 H   0  0  0  0  0  0  0  0  0  0  0  0
   -0.0469   -4.2369    0.0561 C   0  0  0  0  0  0  0  0  0  0  0  0
   -0.7424   -5.0813    0.0858 H   0  0  0  0  0  0  0  0  0  0  0  0
   -0.4414   -2.8411    0.0193 C   0  0  0  0  0  0  0  0  0  0  0  0
   -1.7987   -2.4333    0.0154 C   0  0  2  0  0  3  0  0  0  0  0  0
   -2.8445   -3.5097    0.0202 C   0  0  0  0  0  0  0  0  0  0  0  0
   -3.1163   -4.2470   -1.1507 C   0  0  0  0  0  0  0  0  0  0  0  0
   -2.5498   -4.0241   -2.0674 H   0  0  0  0  0  0  0  0  0  0  0  0
   -4.0949   -5.2523   -1.1471 C   0  0  0  0  0  0  0  0  0  0  0  0
   -4.2979   -5.8200   -2.0679 H   0  0  0  0  0  0  0  0  0  0  0  0
   -4.8154   -5.5312    0.0255 C   0  0  0  0  0  0  0  0  0  0  0  0
   -5.5828   -6.3201    0.0277 H   0  0  0  0  0  0  0  0  0  0  0  0
   -4.5523   -4.8009    1.1953 C   0  0  0  0  0  0  0  0  0  0  0  0
   -5.1102   -5.0178    2.1190 H   0  0  0  0  0  0  0  0  0  0  0  0
   -3.5729   -3.7960    1.1928 C   0  0  0  0  0  0  0  0  0  0  0  0
   -3.3584   -3.2257    2.1095 H   0  0  0  0  0  0  0  0  0  0  0  0
   -2.3103   -1.1333    0.0065 C   0  0  0  0  0  0  0  0  0  0  0  0
   -3.6590   -0.6930    0.0005 C   0  0  0  0  0  0  0  0  0  0  0  0
   -4.5228   -1.3644   -0.0017 H   0  0  0  0  0  0  0  0  0  0  0  0
   -3.6591    0.6928    0.0027 C   0  0  0  0  0  0  0  0  0  0  0  0
   -4.5230    1.3641    0.0067 H   0  0  0  0  0  0  0  0  0  0  0  0
   -2.3105    1.1333   -0.0059 C   0  0  0  0  0  0  0  0  0  0  0  0
   -1.7989    2.4334   -0.0157 C   0  0  1  0  0  3  0  0  0  0  0  0
   -2.8448    3.5098   -0.0200 C   0  0  0  0  0  0  0  0  0  0  0  0
   -3.5777    3.7922   -1.1907 C   0  0  0  0  0  0  0  0  0  0  0  0
   -3.3667    3.2191   -2.1064 H   0  0  0  0  0  0  0  0  0  0  0  0
   -4.5572    4.7970   -1.1926 C   0  0  0  0  0  0  0  0  0  0  0  0
   -5.1186    5.0110   -2.1149 H   0  0  0  0  0  0  0  0  0  0  0  0
   -4.8159    5.5311   -0.0242 C   0  0  0  0  0  0  0  0  0  0  0  0
   -5.5834    6.3198   -0.0260 H   0  0  0  0  0  0  0  0  0  0  0  0
   -4.0909    5.2560    1.1465 C   0  0  0  0  0  0  0  0  0  0  0  0
   -4.2905    5.8265    2.0663 H   0  0  0  0  0  0  0  0  0  0  0  0
   -3.1122    4.2508    1.1495 C   0  0  0  0  0  0  0  0  0  0  0  0
   -2.5421    4.0309    2.0648 H   0  0  0  0  0  0  0  0  0  0  0  0
   -0.4416    2.8412   -0.0206 C   0  0  0  0  0  3  0  0  0  0  0  0
   -0.0469    4.2369   -0.0589 C   0  0  0  0  0  0  0  0  0  0  0  0
   -0.7423    5.0814   -0.0897 H   0  0  0  0  0  0  0  0  0  0  0  0
    1.3271    4.2649   -0.0565 C   0  0  0  0  0  0  0  0  0  0  0  0
    1.9882    5.1393   -0.0816 H   0  0  0  0  0  0  0  0  0  0  0  0
    1.7770    2.8954   -0.0249 C   0  0  0  0  0  0  0  0  0  0  0  0
    3.1194    2.4855   -0.0220 C   0  0  0  0  0  0  0  0  0  0  0  0
    3.8768    3.2840   -0.0335 H   0  0  0  0  0  0  0  0  0  0  0  0
  1 16  1  0  0  0  0
  2 24  2  0  0  0  0
  2 19  1  0  0  0  0
  3 37  1  0  0  0  0
  5  6  1  0  0  0  0
  5  1  1  0  0  0  0
  6 15  1  0  0  0  0
  7  6  2  0  0  0  0
  7  9  1  0  0  0  0
  8  7  1  0  0  0  0
  9 11  2  0  0  0  0
 10  9  1  0  0  0  0
 11 12  1  0  0  0  0
 11 13  1  0  0  0  0
 13 14  1  0  0  0  0
 15 16  1  0  0  0  0
 15 13  2  0  0  0  0
 16 17  2  0  0  0  0
 17 19  1  0  0  0  0
 17 18  1  0  0  0  0
 19 20  1  0  0  0  0
 20 22  2  0  0  0  0
 20 21  1  0  0  0  0
 22 23  1  0  0  0  0
 24 22  1  0  0  0  0
 25 24  1  0  0  0  0
 25 26  1  6  0  0  0
 26 35  1  0  0  0  0
 27 29  1  0  0  0  0
 27 26  2  0  0  0  0
 28 27  1  0  0  0  0
 29 31  2  0  0  0  0
 30 29  1  0  0  0  0
 31 32  1  0  0  0  0
 31 33  1  0  0  0  0
 33 34  1  0  0  0  0
 35 33  2  0  0  0  0
 35 36  1  0  0  0  0
 37 25  1  0  0  0  0
 38 40  1  0  0  0  0
 38 37  2  0  0  0  0
 39 38  1  0  0  0  0
 40 41  1  0  0  0  0
 42  3  1  0  0  0  0
 42 40  2  0  0  0  0
 43 44  1  1  0  0  0
 43 42  1  0  0  0  0
 44 53  1  0  0  0  0
 45 44  2  0  0  0  0
 46 45  1  0  0  0  0
 47 45  1  0  0  0  0
 47 49  2  0  0  0  0
 48 47  1  0  0  0  0
 49 51  1  0  0  0  0
 50 49  1  0  0  0  0
 51 53  2  0  0  0  0
 51 52  1  0  0  0  0
 53 54  1  0  0  0  0
 55 43  1  0  0  0  0
 55  4  1  0  0  0  0
 56 58  2  0  0  0  0
 56 55  1  0  0  0  0
 57 56  1  0  0  0  0
 58 60  1  0  0  0  0
 59 58  1  0  0  0  0
 60 61  1  0  0  0  0
 60  4  2  0  0  0  0
 61  5  2  0  0  0  0
 62 61  1  0  0  0  0
M  END
