1,2,15
 OpenBabel05122313063D

 34 35  0  0  0  0  0  0  0  0999 V2000
   -1.9403   -0.3925   -0.0451 N   0  0  0  0  0  2  0  0  0  0  0  0
    0.2649    1.1016   -0.2079 N   0  0  0  0  0  2  0  0  0  0  0  0
   -2.9785   -1.2454    0.0121 C   0  0  0  0  0  0  0  0  0  0  0  0
   -4.2963   -0.7963    0.1578 C   0  0  0  0  0  0  0  0  0  0  0  0
   -4.5303    0.5847    0.2522 C   0  0  0  0  0  0  0  0  0  0  0  0
   -3.4450    1.4666    0.1975 C   0  0  0  0  0  0  0  0  0  0  0  0
   -2.1438    0.9477    0.0452 C   0  0  0  0  0  0  0  0  0  0  0  0
   -0.9215    1.7765   -0.0364 C   0  0  0  0  0  0  0  0  0  0  0  0
   -0.9578    3.1777    0.0487 C   0  0  0  0  0  0  0  0  0  0  0  0
    0.2307    3.9058   -0.0476 C   0  0  0  0  0  0  0  0  0  0  0  0
    1.4252    3.2072   -0.2498 C   0  0  0  0  0  0  0  0  0  0  0  0
    1.4235    1.8032   -0.3432 C   0  0  0  0  0  0  0  0  0  0  0  0
    2.7028    1.0690   -0.6370 C   0  0  0  0  0  0  0  0  0  0  0  0
    3.0098   -0.1848    0.2190 C   0  0  0  0  0  0  0  0  0  0  0  0
    2.1028   -1.3418   -0.2075 C   0  0  0  0  0  3  0  0  0  0  0  0
    4.4758   -0.5829   -0.0633 C   0  0  0  0  0  0  0  0  0  0  0  0
    2.8556    0.1300    1.7177 C   0  0  0  0  0  0  0  0  0  0  0  0
   -2.6959   -2.3116   -0.0530 H   0  0  0  0  0  0  0  0  0  0  0  0
   -5.1217   -1.5213    0.1985 H   0  0  0  0  0  0  0  0  0  0  0  0
   -5.5522    0.9749    0.3697 H   0  0  0  0  0  0  0  0  0  0  0  0
   -3.6121    2.5493    0.2720 H   0  0  0  0  0  0  0  0  0  0  0  0
   -1.9151    3.6939    0.1954 H   0  0  0  0  0  0  0  0  0  0  0  0
    0.2241    5.0028    0.0284 H   0  0  0  0  0  0  0  0  0  0  0  0
    2.3816    3.7403   -0.3465 H   0  0  0  0  0  0  0  0  0  0  0  0
    3.5344    1.7982   -0.5527 H   0  0  0  0  0  0  0  0  0  0  0  0
    2.6715    0.7509   -1.7046 H   0  0  0  0  0  0  0  0  0  0  0  0
    2.3096   -1.6303   -1.2629 H   0  0  0  0  0  0  0  0  0  0  0  0
    2.2682   -2.2350    0.4280 H   0  0  0  0  0  0  0  0  0  0  0  0
    4.6405   -0.7647   -1.1452 H   0  0  0  0  0  0  0  0  0  0  0  0
    5.1835    0.2083    0.2651 H   0  0  0  0  0  0  0  0  0  0  0  0
    4.7313   -1.5163    0.4771 H   0  0  0  0  0  0  0  0  0  0  0  0
    1.8060    0.3782    1.9741 H   0  0  0  0  0  0  0  0  0  0  0  0
    3.1391   -0.7538    2.3240 H   0  0  0  0  0  0  0  0  0  0  0  0
    3.5037    0.9781    2.0249 H   0  0  0  0  0  0  0  0  0  0  0  0
  1  3  1  0  0  0  0
  1  7  1  0  0  0  0
  2  8  1  0  0  0  0
  3  4  2  0  0  0  0
  4 19  1  0  0  0  0
  4  5  1  0  0  0  0
  5 20  1  0  0  0  0
  6  5  2  0  0  0  0
  6 21  1  0  0  0  0
  7  6  1  0  0  0  0
  8  7  2  0  0  0  0
  8  9  1  0  0  0  0
  9 22  1  0  0  0  0
 10 23  1  0  0  0  0
 10  9  2  0  0  0  0
 11 10  1  0  0  0  0
 12 11  2  0  0  0  0
 12  2  1  0  0  0  0
 13 25  1  0  0  0  0
 13 12  1  0  0  0  0
 13 14  1  0  0  0  0
 14 17  1  0  0  0  0
 15 14  1  0  0  0  0
 15 28  1  0  0  0  0
 16 14  1  0  0  0  0
 16 30  1  0  0  0  0
 16 31  1  0  0  0  0
 17 32  1  0  0  0  0
 17 34  1  0  0  0  0
 17 33  1  0  0  0  0
 18  3  1  0  0  0  0
 24 11  1  0  0  0  0
 26 13  1  0  0  0  0
 27 15  1  0  0  0  0
 29 16  1  0  0  0  0
M  END
