1,2,33
 OpenBabel05122313063D

 55 59  0  0  0  0  0  0  0  0999 V2000
    0.6138   -1.0920   -0.2412 N   0  0  0  0  0  2  0  0  0  0  0  0
   -1.1023    0.9437   -0.5386 N   0  0  0  0  0  2  0  0  0  0  0  0
   -3.0026   -0.2291   -0.2238 N   0  0  0  0  0  0  0  0  0  0  0  0
   -3.9031   -1.2566    0.1883 C   0  0  0  0  0  0  0  0  0  0  0  0
    3.3931   -2.2807   -1.9849 C   0  0  0  0  0  0  0  0  0  0  0  0
    2.6661   -2.8021   -2.6261 H   0  0  0  0  0  0  0  0  0  0  0  0
    2.9538   -1.7684   -0.7397 C   0  0  0  0  0  0  0  0  0  0  0  0
   -0.2203   -3.7799   -0.4114 C   0  0  0  0  0  0  0  0  0  0  0  0
   -0.5375   -4.8324   -0.4453 H   0  0  0  0  0  0  0  0  0  0  0  0
   -0.7253   -1.4235   -0.2441 C   0  0  0  0  0  0  0  0  0  0  0  0
    3.8649   -1.0762    0.1045 C   0  0  0  0  0  0  0  0  0  0  0  0
    3.4481   -0.4361    1.4341 C   0  0  0  0  0  0  0  0  0  0  0  0
   -1.6141   -0.2659   -0.2896 C   0  0  0  0  0  0  0  0  0  0  0  0
    1.5274   -2.0799   -0.4424 C   0  0  0  0  0  0  0  0  0  0  0  0
    4.7072   -2.1103   -2.4301 C   0  0  0  0  0  0  0  0  0  0  0  0
    5.0153   -2.5018   -3.4109 H   0  0  0  0  0  0  0  0  0  0  0  0
   -5.7702   -2.7283   -0.2952 C   0  0  0  0  0  0  0  0  0  0  0  0
   -6.5328   -3.1004   -0.9954 H   0  0  0  0  0  0  0  0  0  0  0  0
   -3.8245   -1.7701    1.4960 C   0  0  0  0  0  0  0  0  0  0  0  0
   -3.0641   -1.3753    2.1856 H   0  0  0  0  0  0  0  0  0  0  0  0
   -2.1655    1.8191   -0.6544 C   0  0  0  0  0  0  0  0  0  0  0  0
   -4.8773   -1.7285   -0.7091 C   0  0  0  0  0  0  0  0  0  0  0  0
   -4.9192   -1.3143   -1.7269 H   0  0  0  0  0  0  0  0  0  0  0  0
    1.1294   -3.4347   -0.5024 C   0  0  0  0  0  0  0  0  0  0  0  0
    1.9067   -4.2017   -0.6179 H   0  0  0  0  0  0  0  0  0  0  0  0
    5.1885   -0.9348   -0.3666 C   0  0  0  0  0  0  0  0  0  0  0  0
    5.9224   -0.4113    0.2581 H   0  0  0  0  0  0  0  0  0  0  0  0
   -4.7116   -2.7791    1.8947 C   0  0  0  0  0  0  0  0  0  0  0  0
   -4.6484   -3.1864    2.9147 H   0  0  0  0  0  0  0  0  0  0  0  0
   -1.1674   -2.7559   -0.3163 C   0  0  0  0  0  0  0  0  0  0  0  0
   -2.2400   -2.9810   -0.3162 H   0  0  0  0  0  0  0  0  0  0  0  0
   -3.3787    1.0953   -0.4615 C   0  0  0  0  0  0  0  0  0  0  0  0
    2.7385    0.8930    1.1001 C   0  0  0  0  0  3  0  0  0  0  0  0
    3.4315    1.5457    0.5313 H   0  0  0  0  0  0  0  0  0  0  0  0
    2.4832    1.4170    2.0465 H   0  0  0  0  0  0  0  0  0  0  0  0
   -5.6851   -3.2585    1.0022 C   0  0  0  0  0  0  0  0  0  0  0  0
   -6.3833   -4.0466    1.3213 H   0  0  0  0  0  0  0  0  0  0  0  0
    2.5919   -1.3693    2.3182 C   0  0  0  0  0  0  0  0  0  0  0  0
    2.4030   -0.8719    3.2908 H   0  0  0  0  0  0  0  0  0  0  0  0
    3.1211   -2.3233    2.5206 H   0  0  0  0  0  0  0  0  0  0  0  0
    1.6037   -1.6044    1.8898 H   0  0  0  0  0  0  0  0  0  0  0  0
    5.6122   -1.4322   -1.6056 C   0  0  0  0  0  0  0  0  0  0  0  0
    6.6559   -1.2858   -1.9230 H   0  0  0  0  0  0  0  0  0  0  0  0
    4.6818   -0.0605    2.2944 C   0  0  0  0  0  0  0  0  0  0  0  0
    5.3101    0.7157    1.8165 H   0  0  0  0  0  0  0  0  0  0  0  0
    5.3163   -0.9452    2.5124 H   0  0  0  0  0  0  0  0  0  0  0  0
    4.3355    0.3578    3.2595 H   0  0  0  0  0  0  0  0  0  0  0  0
   -2.1927    3.2046   -0.9101 C   0  0  0  0  0  0  0  0  0  0  0  0
   -1.2468    3.7516   -1.0290 H   0  0  0  0  0  0  0  0  0  0  0  0
   -4.6375    1.7145   -0.4970 C   0  0  0  0  0  0  0  0  0  0  0  0
   -5.5653    1.1489   -0.3318 H   0  0  0  0  0  0  0  0  0  0  0  0
   -4.6457    3.0911   -0.7533 C   0  0  0  0  0  0  0  0  0  0  0  0
   -5.6094    3.6208   -0.7945 H   0  0  0  0  0  0  0  0  0  0  0  0
   -3.4461    3.8204   -0.9575 C   0  0  0  0  0  0  0  0  0  0  0  0
   -3.5068    4.9016   -1.1512 H   0  0  0  0  0  0  0  0  0  0  0  0
  2 13  1  0  0  0  0
  3  4  1  0  0  0  0
  4 19  1  0  0  0  0
  5  7  1  0  0  0  0
  6  5  1  0  0  0  0
  7 14  1  0  0  0  0
  7 11  2  0  0  0  0
  8 30  2  0  0  0  0
  9  8  1  0  0  0  0
 10  1  1  0  0  0  0
 11 12  1  0  0  0  0
 12 44  1  0  0  0  0
 12 38  1  0  0  0  0
 13 10  2  0  0  0  0
 13  3  1  0  0  0  0
 14  1  1  0  0  0  0
 15  5  2  0  0  0  0
 15 42  1  0  0  0  0
 16 15  1  0  0  0  0
 17 36  2  0  0  0  0
 18 17  1  0  0  0  0
 19 28  2  0  0  0  0
 19 20  1  0  0  0  0
 21  2  1  0  0  0  0
 21 32  1  0  0  0  0
 22 17  1  0  0  0  0
 22  4  2  0  0  0  0
 23 22  1  0  0  0  0
 24 14  2  0  0  0  0
 24  8  1  0  0  0  0
 25 24  1  0  0  0  0
 26 11  1  0  0  0  0
 26 27  1  0  0  0  0
 28 29  1  0  0  0  0
 30 31  1  0  0  0  0
 30 10  1  0  0  0  0
 32  3  1  0  0  0  0
 33 12  1  0  0  0  0
 33 35  1  0  0  0  0
 34 33  1  0  0  0  0
 36 37  1  0  0  0  0
 36 28  1  0  0  0  0
 38 40  1  0  0  0  0
 38 39  1  0  0  0  0
 41 38  1  0  0  0  0
 42 26  2  0  0  0  0
 43 42  1  0  0  0  0
 44 46  1  0  0  0  0
 44 47  1  0  0  0  0
 45 44  1  0  0  0  0
 48 21  2  0  0  0  0
 49 48  1  0  0  0  0
 50 32  2  0  0  0  0
 50 51  1  0  0  0  0
 52 50  1  0  0  0  0
 53 52  1  0  0  0  0
 54 48  1  0  0  0  0
 54 52  2  0  0  0  0
 55 54  1  0  0  0  0
M  END
