3,4,5
 OpenBabel05122313063D

 41 45  0  0  1  0  0  0  0  0999 V2000
    4.0501    1.9564   -0.0863 S   0  0  0  0  0  0  0  0  0  0  0  0
   -4.0503    1.9562   -0.0862 S   0  0  0  0  0  0  0  0  0  0  0  0
    2.0454    0.2970   -0.2722 N   0  0  0  0  0  2  0  0  0  0  0  0
   -2.0455    0.2969   -0.2722 N   0  0  0  0  0  2  0  0  0  0  0  0
   -0.0001    1.8471   -0.0933 C   0  0  0  0  0  3  0  0  0  0  0  0
    2.5268    4.7426    0.2044 C   0  0  0  0  0  0  0  0  0  0  0  0
    2.3326    1.6122   -0.1306 C   0  0  1  0  0  3  0  0  0  0  0  0
   -2.3327    1.6121   -0.1305 C   0  0  2  0  0  3  0  0  0  0  0  0
    1.2374    2.5452   -0.0234 C   0  0  0  0  0  0  0  0  0  0  0  0
   -1.2376    2.5451   -0.0234 C   0  0  0  0  0  0  0  0  0  0  0  0
    1.2466    3.9565    0.1300 C   0  0  0  0  0  0  0  0  0  0  0  0
   -0.0001    4.6135    0.2059 C   0  0  0  0  0  0  0  0  0  0  0  0
   -1.2468    3.9565    0.1300 C   0  0  0  0  0  0  0  0  0  0  0  0
   -2.5270    4.7425    0.2045 C   0  0  0  0  0  0  0  0  0  0  0  0
    4.3977    0.2490   -0.2575 C   0  0  0  0  0  0  0  0  0  0  0  0
    5.6537   -0.3741   -0.3099 C   0  0  0  0  0  0  0  0  0  0  0  0
    5.6932   -1.7666   -0.4487 C   0  0  0  0  0  0  0  0  0  0  0  0
    4.4987   -2.5143   -0.5340 C   0  0  0  0  0  0  0  0  0  0  0  0
    3.2475   -1.8942   -0.4834 C   0  0  0  0  0  0  0  0  0  0  0  0
    3.1847   -0.4932   -0.3433 C   0  0  0  0  0  0  0  0  0  0  0  0
   -4.3978    0.2488   -0.2574 C   0  0  0  0  0  0  0  0  0  0  0  0
   -5.6537   -0.3743   -0.3099 C   0  0  0  0  0  0  0  0  0  0  0  0
   -5.6931   -1.7668   -0.4486 C   0  0  0  0  0  0  0  0  0  0  0  0
   -4.4986   -2.5145   -0.5339 C   0  0  0  0  0  0  0  0  0  0  0  0
   -3.2475   -1.8943   -0.4834 C   0  0  0  0  0  0  0  0  0  0  0  0
   -3.1847   -0.4933   -0.3433 C   0  0  0  0  0  0  0  0  0  0  0  0
   -0.0001    5.7086    0.3240 H   0  0  0  0  0  0  0  0  0  0  0  0
    3.1558    4.4182    1.0611 H   0  0  0  0  0  0  0  0  0  0  0  0
    2.3301    5.8255    0.3201 H   0  0  0  0  0  0  0  0  0  0  0  0
    3.1409    4.6055   -0.7115 H   0  0  0  0  0  0  0  0  0  0  0  0
   -3.1561    4.4180    1.0611 H   0  0  0  0  0  0  0  0  0  0  0  0
   -3.1411    4.6055   -0.7114 H   0  0  0  0  0  0  0  0  0  0  0  0
   -2.3304    5.8254    0.3204 H   0  0  0  0  0  0  0  0  0  0  0  0
    6.5789    0.2164   -0.2436 H   0  0  0  0  0  0  0  0  0  0  0  0
    6.6654   -2.2792   -0.4921 H   0  0  0  0  0  0  0  0  0  0  0  0
    4.5495   -3.6076   -0.6444 H   0  0  0  0  0  0  0  0  0  0  0  0
    2.3228   -2.4737   -0.5553 H   0  0  0  0  0  0  0  0  0  0  0  0
   -6.5789    0.2161   -0.2435 H   0  0  0  0  0  0  0  0  0  0  0  0
   -6.6654   -2.2795   -0.4921 H   0  0  0  0  0  0  0  0  0  0  0  0
   -4.5493   -3.6078   -0.6443 H   0  0  0  0  0  0  0  0  0  0  0  0
   -2.3227   -2.4738   -0.5553 H   0  0  0  0  0  0  0  0  0  0  0  0
  3  7  1  0  0  0  0
  4  8  1  0  0  0  0
  5  9  2  0  0  0  0
  5 10  1  0  0  0  0
  6 29  1  0  0  0  0
  6 28  1  0  0  0  0
  7  1  1  0  0  0  0
  7  9  1  1  0  0  0
  8  2  1  0  0  0  0
  8 10  1  1  0  0  0
  9 11  1  0  0  0  0
 10 13  2  0  0  0  0
 11  6  1  0  0  0  0
 11 12  2  0  0  0  0
 12 27  1  0  0  0  0
 13 14  1  0  0  0  0
 13 12  1  0  0  0  0
 14 33  1  0  0  0  0
 14 31  1  0  0  0  0
 15  1  1  0  0  0  0
 16 15  1  0  0  0  0
 16 34  1  0  0  0  0
 17 16  2  0  0  0  0
 18 19  2  0  0  0  0
 18 17  1  0  0  0  0
 19 20  1  0  0  0  0
 20  3  1  0  0  0  0
 20 15  2  0  0  0  0
 21  2  1  0  0  0  0
 22 21  1  0  0  0  0
 22 38  1  0  0  0  0
 23 22  2  0  0  0  0
 24 25  2  0  0  0  0
 24 23  1  0  0  0  0
 25 26  1  0  0  0  0
 26  4  1  0  0  0  0
 26 21  2  0  0  0  0
 30  6  1  0  0  0  0
 32 14  1  0  0  0  0
 35 17  1  0  0  0  0
 36 18  1  0  0  0  0
 37 19  1  0  0  0  0
 39 23  1  0  0  0  0
 40 24  1  0  0  0  0
 41 25  1  0  0  0  0
M  END
