1,2,3
 OpenBabel05122313063D

 64 67  0  0  1  0  0  0  0  0999 V2000
    0.8064    0.9930   -0.8721 N   0  0  0  0  0  2  0  0  0  0  0  0
   -1.6508    0.4155   -0.4687 N   0  0  0  0  0  2  0  0  0  0  0  0
    2.1284   -1.1882   -0.1904 C   0  0  0  0  0  3  0  0  0  0  0  0
    2.7887   -2.3971    0.1712 C   0  0  0  0  0  0  0  0  0  0  0  0
    2.2106   -3.3357    0.2416 H   0  0  0  0  0  0  0  0  0  0  0  0
    4.1537   -2.4369    0.4199 C   0  0  0  0  0  0  0  0  0  0  0  0
    4.6615   -3.3882    0.6483 H   0  0  0  0  0  0  0  0  0  0  0  0
    4.9213   -1.2368    0.4385 C   0  0  0  0  0  0  0  0  0  0  0  0
    6.2983   -1.2563    0.8086 C   0  0  0  0  0  0  0  0  0  0  0  0
    6.7680   -2.2299    1.0196 H   0  0  0  0  0  0  0  0  0  0  0  0
    7.0259   -0.0834    0.9322 C   0  0  0  0  0  0  0  0  0  0  0  0
    8.0859   -0.1137    1.2261 H   0  0  0  0  0  0  0  0  0  0  0  0
    6.3833    1.1624    0.7166 C   0  0  0  0  0  0  0  0  0  0  0  0
    6.9397    2.0992    0.8736 H   0  0  0  0  0  0  0  0  0  0  0  0
    5.0514    1.2128    0.3260 C   0  0  0  0  0  0  0  0  0  0  0  0
    4.5722    2.1939    0.2182 H   0  0  0  0  0  0  0  0  0  0  0  0
    4.2823    0.0250    0.1273 C   0  0  0  0  0  0  0  0  0  0  0  0
    2.8978   -0.0096   -0.2859 C   0  0  0  0  0  0  0  0  0  0  0  0
    2.1664    1.1390   -0.8723 C   0  0  1  0  0  3  0  0  0  0  0  0
    2.7330    2.2674   -1.5021 C   0  0  0  0  0  0  0  0  0  0  0  0
    3.8208    2.3623   -1.5910 H   0  0  0  0  0  0  0  0  0  0  0  0
    1.8936    3.2408   -2.0602 C   0  0  0  0  0  0  0  0  0  0  0  0
    2.3319    4.1249   -2.5483 H   0  0  0  0  0  0  0  0  0  0  0  0
    0.5044    3.0820   -2.0078 C   0  0  0  0  0  0  0  0  0  0  0  0
   -0.1706    3.8326   -2.4405 H   0  0  0  0  0  0  0  0  0  0  0  0
   -0.0124    1.9187   -1.4103 C   0  0  0  0  0  0  0  0  0  0  0  0
   -1.5014    1.5469   -1.4034 C   0  0  0  0  0  0  0  0  0  0  0  0
   -2.3988    2.7558   -1.0822 C   0  0  0  0  0  0  0  0  0  0  0  0
   -3.4538    2.4252   -1.0228 H   0  0  0  0  0  0  0  0  0  0  0  0
   -2.3319    3.5179   -1.8830 H   0  0  0  0  0  0  0  0  0  0  0  0
   -2.1386    3.2371   -0.1228 H   0  0  0  0  0  0  0  0  0  0  0  0
   -1.8408    1.0734   -2.8472 C   0  0  0  0  0  0  0  0  0  0  0  0
   -1.2444    0.1787   -3.1127 H   0  0  0  0  0  0  0  0  0  0  0  0
   -1.6418    1.8664   -3.5971 H   0  0  0  0  0  0  0  0  0  0  0  0
   -2.9124    0.7996   -2.9026 H   0  0  0  0  0  0  0  0  0  0  0  0
   -2.6615    0.4127    0.5372 C   0  0  0  0  0  0  0  0  0  0  0  0
   -3.8369   -0.3816    0.3745 C   0  0  0  0  0  0  0  0  0  0  0  0
   -4.7764   -0.4460    1.4216 C   0  0  0  0  0  0  0  0  0  0  0  0
   -5.6801   -1.0636    1.2966 H   0  0  0  0  0  0  0  0  0  0  0  0
   -4.5815    0.2556    2.6151 C   0  0  0  0  0  0  0  0  0  0  0  0
   -5.3248    0.1918    3.4245 H   0  0  0  0  0  0  0  0  0  0  0  0
   -3.4296    1.0374    2.7768 C   0  0  0  0  0  0  0  0  0  0  0  0
   -3.2750    1.5791    3.7227 H   0  0  0  0  0  0  0  0  0  0  0  0
   -2.4616    1.1299    1.7624 C   0  0  0  0  0  0  0  0  0  0  0  0
   -4.0901   -1.1640   -0.9062 C   0  0  0  0  0  0  0  0  0  0  0  0
   -3.1900   -1.0213   -1.5366 H   0  0  0  0  0  0  0  0  0  0  0  0
   -4.2362   -2.6708   -0.6398 C   0  0  0  0  0  0  0  0  0  0  0  0
   -3.3536   -3.0698   -0.1001 H   0  0  0  0  0  0  0  0  0  0  0  0
   -4.3373   -3.2308   -1.5924 H   0  0  0  0  0  0  0  0  0  0  0  0
   -5.1326   -2.8953   -0.0248 H   0  0  0  0  0  0  0  0  0  0  0  0
   -5.3001   -0.6081   -1.6749 C   0  0  0  0  0  0  0  0  0  0  0  0
   -6.2387   -0.7213   -1.0928 H   0  0  0  0  0  0  0  0  0  0  0  0
   -5.4361   -1.1416   -2.6386 H   0  0  0  0  0  0  0  0  0  0  0  0
   -5.1777    0.4721   -1.8956 H   0  0  0  0  0  0  0  0  0  0  0  0
   -1.1907    1.9406    2.0097 C   0  0  0  0  0  0  0  0  0  0  0  0
   -0.7184    2.1168    1.0247 H   0  0  0  0  0  0  0  0  0  0  0  0
   -1.4635    3.3124    2.6449 C   0  0  0  0  0  0  0  0  0  0  0  0
   -2.2151    3.8892    2.0684 H   0  0  0  0  0  0  0  0  0  0  0  0
   -0.5303    3.9102    2.6902 H   0  0  0  0  0  0  0  0  0  0  0  0
   -1.8416    3.2210    3.6839 H   0  0  0  0  0  0  0  0  0  0  0  0
   -0.1697    1.1474    2.8437 C   0  0  0  0  0  0  0  0  0  0  0  0
   -0.5765    0.8999    3.8460 H   0  0  0  0  0  0  0  0  0  0  0  0
    0.7661    1.7273    2.9812 H   0  0  0  0  0  0  0  0  0  0  0  0
    0.0960    0.1836    2.3628 H   0  0  0  0  0  0  0  0  0  0  0  0
  2 36  1  0  0  0  0
  3  4  1  0  0  0  0
  4  5  1  0  0  0  0
  4  6  2  0  0  0  0
  6  8  1  0  0  0  0
  6  7  1  0  0  0  0
  8  9  1  0  0  0  0
  9 11  2  0  0  0  0
  9 10  1  0  0  0  0
 11 12  1  0  0  0  0
 13 14  1  0  0  0  0
 13 11  1  0  0  0  0
 15 13  2  0  0  0  0
 16 15  1  0  0  0  0
 17 15  1  0  0  0  0
 17  8  2  0  0  0  0
 18  3  2  0  0  0  0
 18 17  1  0  0  0  0
 19  1  1  0  0  0  0
 19 18  1  6  0  0  0
 20 19  1  0  0  0  0
 21 20  1  0  0  0  0
 22 24  1  0  0  0  0
 22 20  2  0  0  0  0
 23 22  1  0  0  0  0
 24 26  2  0  0  0  0
 25 24  1  0  0  0  0
 26 27  1  0  0  0  0
 26  1  1  0  0  0  0
 27 28  1  0  0  0  0
 27  2  1  0  0  0  0
 28 29  1  0  0  0  0
 28 31  1  0  0  0  0
 30 28  1  0  0  0  0
 32 27  1  0  0  0  0
 33 32  1  0  0  0  0
 34 32  1  0  0  0  0
 35 32  1  0  0  0  0
 36 44  1  0  0  0  0
 37 36  2  0  0  0  0
 37 38  1  0  0  0  0
 38 40  2  0  0  0  0
 39 38  1  0  0  0  0
 40 42  1  0  0  0  0
 40 41  1  0  0  0  0
 42 43  1  0  0  0  0
 44 55  1  0  0  0  0
 44 42  2  0  0  0  0
 45 47  1  0  0  0  0
 45 37  1  0  0  0  0
 46 45  1  0  0  0  0
 47 48  1  0  0  0  0
 47 50  1  0  0  0  0
 49 47  1  0  0  0  0
 51 52  1  0  0  0  0
 51 45  1  0  0  0  0
 53 51  1  0  0  0  0
 54 51  1  0  0  0  0
 55 57  1  0  0  0  0
 55 61  1  0  0  0  0
 56 55  1  0  0  0  0
 57 59  1  0  0  0  0
 57 60  1  0  0  0  0
 58 57  1  0  0  0  0
 61 63  1  0  0  0  0
 61 62  1  0  0  0  0
 64 61  1  0  0  0  0
M  END
