1,2,5
 OpenBabel05122313063D

 57 63  0  0  1  0  0  0  0  0999 V2000
    2.0015   -0.2941   -0.3700 N   0  0  0  0  0  2  0  0  0  0  0  0
   -2.0312   -0.3421   -0.2042 N   0  0  0  0  0  2  0  0  0  0  0  0
    3.6787    1.1920   -0.2210 N   0  0  0  0  0  0  0  0  0  0  0  0
   -3.7306    1.1192   -0.0541 N   0  0  0  0  0  0  0  0  0  0  0  0
   -0.0261    1.2426   -0.1017 C   0  0  0  0  0  3  0  0  0  0  0  0
    3.1862   -0.9910   -0.5135 C   0  0  0  0  0  0  0  0  0  0  0  0
    3.4410   -2.3604   -0.7045 C   0  0  0  0  0  0  0  0  0  0  0  0
    4.7786   -2.7623   -0.7979 C   0  0  0  0  0  0  0  0  0  0  0  0
    5.8415   -1.8325   -0.6991 C   0  0  0  0  0  0  0  0  0  0  0  0
    5.6027   -0.4641   -0.5074 C   0  0  0  0  0  0  0  0  0  0  0  0
    4.2626   -0.0623   -0.4246 C   0  0  0  0  0  0  0  0  0  0  0  0
    4.3971    2.3986    0.0250 C   0  0  0  0  0  0  0  0  0  0  0  0
    5.2054    2.9458   -0.9866 C   0  0  0  0  0  0  0  0  0  0  0  0
    5.9258    4.1223   -0.7335 C   0  0  0  0  0  0  0  0  0  0  0  0
    5.8318    4.7534    0.5173 C   0  0  0  0  0  0  0  0  0  0  0  0
    5.0221    4.2008    1.5235 C   0  0  0  0  0  0  0  0  0  0  0  0
    4.3099    3.0173    1.2853 C   0  0  0  0  0  0  0  0  0  0  0  0
    2.3064    1.0194   -0.1962 C   0  0  1  0  0  3  0  0  0  0  0  0
    1.2076    1.9567   -0.0553 C   0  0  0  0  0  0  0  0  0  0  0  0
    1.1894    3.3614    0.0841 C   0  0  0  0  0  0  0  0  0  0  0  0
   -0.0464    4.0264    0.1974 C   0  0  0  0  0  0  0  0  0  0  0  0
   -1.2724    3.3359    0.1521 C   0  0  0  0  0  0  0  0  0  0  0  0
   -1.2704    1.9340   -0.0154 C   0  0  0  0  0  0  0  0  0  0  0  0
   -2.3556    0.9745   -0.1028 C   0  0  1  0  0  3  0  0  0  0  0  0
   -4.4633    2.3414   -0.0859 C   0  0  0  0  0  0  0  0  0  0  0  0
   -4.3297    3.2040   -1.1891 C   0  0  0  0  0  0  0  0  0  0  0  0
   -5.0551    4.4029   -1.2181 C   0  0  0  0  0  0  0  0  0  0  0  0
   -5.9236    4.7306   -0.1636 C   0  0  0  0  0  0  0  0  0  0  0  0
   -6.0633    3.8575    0.9271 C   0  0  0  0  0  0  0  0  0  0  0  0
   -5.3301    2.6626    0.9733 C   0  0  0  0  0  0  0  0  0  0  0  0
   -4.2956   -0.1593   -0.1084 C   0  0  0  0  0  0  0  0  0  0  0  0
   -5.6290   -0.5908   -0.1114 C   0  0  0  0  0  0  0  0  0  0  0  0
   -5.8461   -1.9741   -0.1883 C   0  0  0  0  0  0  0  0  0  0  0  0
   -4.7688   -2.8890   -0.2659 C   0  0  0  0  0  0  0  0  0  0  0  0
   -3.4379   -2.4554   -0.2775 C   0  0  0  0  0  0  0  0  0  0  0  0
   -3.2051   -1.0712   -0.2014 C   0  0  0  0  0  0  0  0  0  0  0  0
    2.6118   -3.0750   -0.7766 H   0  0  0  0  0  0  0  0  0  0  0  0
    5.0103   -3.8269   -0.9500 H   0  0  0  0  0  0  0  0  0  0  0  0
    6.8793   -2.1901   -0.7730 H   0  0  0  0  0  0  0  0  0  0  0  0
    6.4245    0.2611   -0.4246 H   0  0  0  0  0  0  0  0  0  0  0  0
    5.2516    2.4495   -1.9667 H   0  0  0  0  0  0  0  0  0  0  0  0
    6.5568    4.5544   -1.5246 H   0  0  0  0  0  0  0  0  0  0  0  0
    6.3933    5.6798    0.7098 H   0  0  0  0  0  0  0  0  0  0  0  0
    4.9505    4.6899    2.5064 H   0  0  0  0  0  0  0  0  0  0  0  0
    3.6786    2.5652    2.0639 H   0  0  0  0  0  0  0  0  0  0  0  0
    2.1200    3.9454    0.1015 H   0  0  0  0  0  0  0  0  0  0  0  0
   -0.0545    5.1198    0.3168 H   0  0  0  0  0  0  0  0  0  0  0  0
   -2.2119    3.8984    0.2430 H   0  0  0  0  0  0  0  0  0  0  0  0
   -3.6530    2.9266   -2.0105 H   0  0  0  0  0  0  0  0  0  0  0  0
   -4.9475    5.0817   -2.0772 H   0  0  0  0  0  0  0  0  0  0  0  0
   -6.4954    5.6701   -0.1933 H   0  0  0  0  0  0  0  0  0  0  0  0
   -6.7408    4.1123    1.7558 H   0  0  0  0  0  0  0  0  0  0  0  0
   -5.4130    1.9777    1.8296 H   0  0  0  0  0  0  0  0  0  0  0  0
   -6.4628    0.1233   -0.0569 H   0  0  0  0  0  0  0  0  0  0  0  0
   -6.8782   -2.3550   -0.1898 H   0  0  0  0  0  0  0  0  0  0  0  0
   -4.9836   -3.9664   -0.3231 H   0  0  0  0  0  0  0  0  0  0  0  0
   -2.5974   -3.1569   -0.3471 H   0  0  0  0  0  0  0  0  0  0  0  0
  1 18  1  0  0  0  0
  2 36  1  0  0  0  0
  2 24  1  0  0  0  0
  3 18  1  0  0  0  0
  3 12  1  0  0  0  0
  5 19  2  0  0  0  0
  5 23  1  0  0  0  0
  6 11  1  0  0  0  0
  6  1  1  0  0  0  0
  7  6  2  0  0  0  0
  8  7  1  0  0  0  0
  8  9  2  0  0  0  0
  9 10  1  0  0  0  0
 10 40  1  0  0  0  0
 10 11  2  0  0  0  0
 11  3  1  0  0  0  0
 12 17  1  0  0  0  0
 13 14  1  0  0  0  0
 13 12  2  0  0  0  0
 14 15  2  0  0  0  0
 15 43  1  0  0  0  0
 15 16  1  0  0  0  0
 16 44  1  0  0  0  0
 17 16  2  0  0  0  0
 17 45  1  0  0  0  0
 18 19  1  6  0  0  0
 19 20  1  0  0  0  0
 20 46  1  0  0  0  0
 20 21  2  0  0  0  0
 21 47  1  0  0  0  0
 22 21  1  0  0  0  0
 22 48  1  0  0  0  0
 23 22  2  0  0  0  0
 24  4  1  0  0  0  0
 24 23  1  1  0  0  0
 25  4  1  0  0  0  0
 25 30  1  0  0  0  0
 26 25  2  0  0  0  0
 27 26  1  0  0  0  0
 27 28  2  0  0  0  0
 28 29  1  0  0  0  0
 29 30  2  0  0  0  0
 29 52  1  0  0  0  0
 30 53  1  0  0  0  0
 31  4  1  0  0  0  0
 32 31  1  0  0  0  0
 32 54  1  0  0  0  0
 33 32  2  0  0  0  0
 34 33  1  0  0  0  0
 35 34  2  0  0  0  0
 35 36  1  0  0  0  0
 36 31  2  0  0  0  0
 37  7  1  0  0  0  0
 38  8  1  0  0  0  0
 39  9  1  0  0  0  0
 41 13  1  0  0  0  0
 42 14  1  0  0  0  0
 49 26  1  0  0  0  0
 50 27  1  0  0  0  0
 51 28  1  0  0  0  0
 55 33  1  0  0  0  0
 56 34  1  0  0  0  0
 57 35  1  0  0  0  0
M  END
