1,2,3
 OpenBabel05122313063D

 53 55  0  0  0  0  0  0  0  0999 V2000
   -0.7109    0.4147    2.0706 N   0  0  0  0  0  0  0  0  0  0  0  0
    0.8775   -1.1505   -1.6595 N   0  0  0  0  0  0  0  0  0  0  0  0
    0.8282    1.4068   -0.1697 C   0  0  0  0  0  3  0  0  0  0  0  0
    2.2194    1.6497   -0.0597 C   0  0  0  0  0  0  0  0  0  0  0  0
    2.7333    2.9499   -0.2686 C   0  0  0  0  0  0  0  0  0  0  0  0
    3.8175    3.1182   -0.1709 H   0  0  0  0  0  0  0  0  0  0  0  0
    1.8861    3.9983   -0.6508 C   0  0  0  0  0  0  0  0  0  0  0  0
    2.2970    5.0020   -0.8372 H   0  0  0  0  0  0  0  0  0  0  0  0
    0.5120    3.7596   -0.7980 C   0  0  0  0  0  0  0  0  0  0  0  0
   -0.1688    4.5763   -1.0858 H   0  0  0  0  0  0  0  0  0  0  0  0
   -0.0256    2.4822   -0.5302 C   0  0  0  0  0  0  0  0  0  0  0  0
   -1.5037    2.2829   -0.5371 C   0  0  0  0  0  0  0  0  0  0  0  0
   -2.1514    1.9360    0.6791 C   0  0  0  0  0  0  0  0  0  0  0  0
   -3.5455    1.7665    0.6969 C   0  0  0  0  0  0  0  0  0  0  0  0
   -4.0470    1.5130    1.6441 H   0  0  0  0  0  0  0  0  0  0  0  0
   -4.3025    1.9212   -0.4745 C   0  0  0  0  0  0  0  0  0  0  0  0
   -5.3917    1.7694   -0.4491 H   0  0  0  0  0  0  0  0  0  0  0  0
   -3.6654    2.2747   -1.6725 C   0  0  0  0  0  0  0  0  0  0  0  0
   -4.2540    2.4026   -2.5937 H   0  0  0  0  0  0  0  0  0  0  0  0
   -2.2753    2.4666   -1.6990 C   0  0  0  0  0  0  0  0  0  0  0  0
   -1.7709    2.7480   -2.6364 H   0  0  0  0  0  0  0  0  0  0  0  0
    3.1572    0.5221    0.1735 C   0  0  0  0  0  0  0  0  0  0  0  0
    3.1618   -0.5583   -0.7473 C   0  0  0  0  0  0  0  0  0  0  0  0
    4.0918   -1.6007   -0.5771 C   0  0  0  0  0  0  0  0  0  0  0  0
    4.1200   -2.4221   -1.3102 H   0  0  0  0  0  0  0  0  0  0  0  0
    4.9910   -1.5994    0.4998 C   0  0  0  0  0  0  0  0  0  0  0  0
    5.7046   -2.4281    0.6216 H   0  0  0  0  0  0  0  0  0  0  0  0
    4.9847   -0.5308    1.4091 C   0  0  0  0  0  0  0  0  0  0  0  0
    5.6911   -0.5184    2.2531 H   0  0  0  0  0  0  0  0  0  0  0  0
    4.0825    0.5289    1.2354 C   0  0  0  0  0  0  0  0  0  0  0  0
    4.0821    1.3772    1.9375 H   0  0  0  0  0  0  0  0  0  0  0  0
   -1.3153    1.7840    1.9234 C   0  0  0  0  0  0  0  0  0  0  0  0
   -1.9162    1.9986    2.8341 H   0  0  0  0  0  0  0  0  0  0  0  0
   -0.4799    2.5076    1.8940 H   0  0  0  0  0  0  0  0  0  0  0  0
    2.2188   -0.5323   -1.9243 C   0  0  0  0  0  0  0  0  0  0  0  0
    2.6694   -1.0783   -2.7843 H   0  0  0  0  0  0  0  0  0  0  0  0
    2.0414    0.5113   -2.2425 H   0  0  0  0  0  0  0  0  0  0  0  0
    0.5189    0.4921    2.8950 C   0  0  0  0  0  0  0  0  0  0  0  0
    0.2793    0.8817    3.9113 H   0  0  0  0  0  0  0  0  0  0  0  0
    1.2559    1.1540    2.4075 H   0  0  0  0  0  0  0  0  0  0  0  0
    0.9567   -0.5187    2.9891 H   0  0  0  0  0  0  0  0  0  0  0  0
   -1.6848   -0.4517    2.7743 C   0  0  0  0  0  0  0  0  0  0  0  0
   -1.2812   -1.4747    2.8644 H   0  0  0  0  0  0  0  0  0  0  0  0
   -2.6211   -0.5143    2.1940 H   0  0  0  0  0  0  0  0  0  0  0  0
   -1.8846   -0.0282    3.7858 H   0  0  0  0  0  0  0  0  0  0  0  0
    1.0735   -2.6184   -1.5457 C   0  0  0  0  0  0  0  0  0  0  0  0
    1.5987   -2.9905   -2.4556 H   0  0  0  0  0  0  0  0  0  0  0  0
    0.0936   -3.1137   -1.4345 H   0  0  0  0  0  0  0  0  0  0  0  0
    1.6830   -2.8419   -0.6523 H   0  0  0  0  0  0  0  0  0  0  0  0
   -0.0218   -0.8532   -2.8001 C   0  0  0  0  0  0  0  0  0  0  0  0
    0.4185   -1.2372   -3.7491 H   0  0  0  0  0  0  0  0  0  0  0  0
   -0.1652    0.2410   -2.8746 H   0  0  0  0  0  0  0  0  0  0  0  0
   -1.0006   -1.3336   -2.6142 H   0  0  0  0  0  0  0  0  0  0  0  0
  1 42  1  0  0  0  0
  1 38  1  0  0  0  0
  2 46  1  0  0  0  0
  3  4  1  0  0  0  0
  4 22  1  0  0  0  0
  5  6  1  0  0  0  0
  5  4  2  0  0  0  0
  7  5  1  0  0  0  0
  8  7  1  0  0  0  0
  9  7  2  0  0  0  0
  9 11  1  0  0  0  0
 10  9  1  0  0  0  0
 11  3  2  0  0  0  0
 12 11  1  0  0  0  0
 12 13  1  0  0  0  0
 13 14  2  0  0  0  0
 13 32  1  0  0  0  0
 14 15  1  0  0  0  0
 16 17  1  0  0  0  0
 16 14  1  0  0  0  0
 18 16  2  0  0  0  0
 19 18  1  0  0  0  0
 20 18  1  0  0  0  0
 20 12  2  0  0  0  0
 21 20  1  0  0  0  0
 22 30  1  0  0  0  0
 23 24  1  0  0  0  0
 23 22  2  0  0  0  0
 24 26  2  0  0  0  0
 25 24  1  0  0  0  0
 26 27  1  0  0  0  0
 26 28  1  0  0  0  0
 28 29  1  0  0  0  0
 30 28  2  0  0  0  0
 30 31  1  0  0  0  0
 32  1  1  0  0  0  0
 32 33  1  0  0  0  0
 34 32  1  0  0  0  0
 35  2  1  0  0  0  0
 35 23  1  0  0  0  0
 36 35  1  0  0  0  0
 37 35  1  0  0  0  0
 38 41  1  0  0  0  0
 38 39  1  0  0  0  0
 40 38  1  0  0  0  0
 42 43  1  0  0  0  0
 42 45  1  0  0  0  0
 44 42  1  0  0  0  0
 46 48  1  0  0  0  0
 46 49  1  0  0  0  0
 47 46  1  0  0  0  0
 50 53  1  0  0  0  0
 50  2  1  0  0  0  0
 51 50  1  0  0  0  0
 52 50  1  0  0  0  0
M  END
