1,2,3
 OpenBabel05122313063D

 49 52  0  0  1  0  0  0  0  0999 V2000
    0.1567    0.8515   -0.4632 N   0  0  0  0  0  2  0  0  0  0  0  0
   -1.9003   -0.6402   -0.5872 N   0  0  0  0  0  2  0  0  0  0  0  0
    2.0480   -0.7171    0.5033 C   0  0  0  0  0  3  0  0  0  0  0  0
    3.0173   -1.6070    1.0467 C   0  0  0  0  0  0  0  0  0  0  0  0
    2.7031   -2.6006    1.4131 H   0  0  0  0  0  0  0  0  0  0  0  0
    4.3543   -1.2502    1.1571 C   0  0  0  0  0  0  0  0  0  0  0  0
    5.0853   -1.9262    1.6301 H   0  0  0  0  0  0  0  0  0  0  0  0
    4.8214   -0.0199    0.6121 C   0  0  0  0  0  0  0  0  0  0  0  0
    6.2115    0.2988    0.6184 C   0  0  0  0  0  0  0  0  0  0  0  0
    6.9045   -0.4009    1.1116 H   0  0  0  0  0  0  0  0  0  0  0  0
    6.6902    1.4402   -0.0044 C   0  0  0  0  0  0  0  0  0  0  0  0
    7.7665    1.6691    0.0022 H   0  0  0  0  0  0  0  0  0  0  0  0
    5.7859    2.2923   -0.6883 C   0  0  0  0  0  0  0  0  0  0  0  0
    6.1675    3.1658   -1.2388 H   0  0  0  0  0  0  0  0  0  0  0  0
    4.4230    2.0251   -0.6860 C   0  0  0  0  0  0  0  0  0  0  0  0
    3.7602    2.6761   -1.2694 H   0  0  0  0  0  0  0  0  0  0  0  0
    3.8802    0.8939   -0.0020 C   0  0  0  0  0  0  0  0  0  0  0  0
    2.4767    0.5517    0.0599 C   0  0  0  0  0  0  0  0  0  0  0  0
    1.3688    1.4717   -0.2921 C   0  0  2  0  0  3  0  0  0  0  0  0
    1.4289    2.8787   -0.3553 C   0  0  0  0  0  0  0  0  0  0  0  0
    2.3638    3.4001   -0.1228 H   0  0  0  0  0  0  0  0  0  0  0  0
    0.2737    3.6134   -0.6619 C   0  0  0  0  0  0  0  0  0  0  0  0
    0.3217    4.7119   -0.7100 H   0  0  0  0  0  0  0  0  0  0  0  0
   -0.9360    2.9504   -0.8832 C   0  0  0  0  0  0  0  0  0  0  0  0
   -1.8652    3.4928   -1.1056 H   0  0  0  0  0  0  0  0  0  0  0  0
   -0.9565    1.5507   -0.7529 C   0  0  0  0  0  0  0  0  0  0  0  0
   -2.2315    0.7315   -0.8800 C   0  0  2  0  0  0  0  0  0  0  0  0
   -2.5858    0.8602   -1.9350 H   0  0  0  0  0  0  0  0  0  0  0  0
   -3.3152    1.3464    0.0160 C   0  0  0  0  0  0  0  0  0  0  0  0
   -3.1810    1.2910    1.4166 C   0  0  0  0  0  0  0  0  0  0  0  0
   -2.3026    0.7880    1.8513 H   0  0  0  0  0  0  0  0  0  0  0  0
   -4.1631    1.8457    2.2464 C   0  0  0  0  0  0  0  0  0  0  0  0
   -4.0495    1.7938    3.3401 H   0  0  0  0  0  0  0  0  0  0  0  0
   -5.2953    2.4638    1.6857 C   0  0  0  0  0  0  0  0  0  0  0  0
   -6.0700    2.8941    2.3385 H   0  0  0  0  0  0  0  0  0  0  0  0
   -5.4340    2.5275    0.2915 C   0  0  0  0  0  0  0  0  0  0  0  0
   -6.3192    3.0063   -0.1546 H   0  0  0  0  0  0  0  0  0  0  0  0
   -4.4447    1.9723   -0.5381 C   0  0  0  0  0  0  0  0  0  0  0  0
   -4.5571    2.0120   -1.6341 H   0  0  0  0  0  0  0  0  0  0  0  0
   -2.8906   -1.6922   -0.8465 C   0  0  0  0  0  0  0  0  0  0  0  0
   -2.3310   -2.6521   -0.6917 H   0  0  0  0  0  0  0  0  0  0  0  0
   -4.0741   -1.7310    0.1369 C   0  0  0  0  0  0  0  0  0  0  0  0
   -3.7150   -1.7004    1.1837 H   0  0  0  0  0  0  0  0  0  0  0  0
   -4.6607   -2.6619   -0.0060 H   0  0  0  0  0  0  0  0  0  0  0  0
   -4.7590   -0.8734   -0.0113 H   0  0  0  0  0  0  0  0  0  0  0  0
   -3.3739   -1.7116   -2.3053 C   0  0  0  0  0  0  0  0  0  0  0  0
   -3.9939   -2.6085   -2.5048 H   0  0  0  0  0  0  0  0  0  0  0  0
   -2.5153   -1.7167   -3.0064 H   0  0  0  0  0  0  0  0  0  0  0  0
   -4.0025   -0.8247   -2.5307 H   0  0  0  0  0  0  0  0  0  0  0  0
  1 19  1  0  0  0  0
  3  4  1  0  0  0  0
  4  6  2  0  0  0  0
  4  5  1  0  0  0  0
  6  7  1  0  0  0  0
  8  9  1  0  0  0  0
  8  6  1  0  0  0  0
  9 10  1  0  0  0  0
 11 12  1  0  0  0  0
 11  9  2  0  0  0  0
 13 15  2  0  0  0  0
 13 11  1  0  0  0  0
 14 13  1  0  0  0  0
 15 17  1  0  0  0  0
 16 15  1  0  0  0  0
 17 18  1  0  0  0  0
 17  8  2  0  0  0  0
 18  3  2  0  0  0  0
 19 18  1  1  0  0  0
 20 19  1  0  0  0  0
 20 21  1  0  0  0  0
 22 20  2  0  0  0  0
 23 22  1  0  0  0  0
 24 26  2  0  0  0  0
 24 22  1  0  0  0  0
 25 24  1  0  0  0  0
 26  1  1  0  0  0  0
 27 28  1  6  0  0  0
 27 26  1  0  0  0  0
 27  2  1  0  0  0  0
 27 29  1  0  0  0  0
 29 30  1  0  0  0  0
 30 31  1  0  0  0  0
 30 32  2  0  0  0  0
 32 33  1  0  0  0  0
 34 32  1  0  0  0  0
 34 35  1  0  0  0  0
 36 34  2  0  0  0  0
 37 36  1  0  0  0  0
 38 29  2  0  0  0  0
 38 36  1  0  0  0  0
 39 38  1  0  0  0  0
 40 41  1  0  0  0  0
 40  2  1  0  0  0  0
 40 42  1  0  0  0  0
 42 43  1  0  0  0  0
 44 42  1  0  0  0  0
 45 42  1  0  0  0  0
 46 40  1  0  0  0  0
 47 46  1  0  0  0  0
 48 46  1  0  0  0  0
 49 46  1  0  0  0  0
M  END
