3,4,6
 OpenBabel05122313063D

 35 35  0  0  0  0  0  0  0  0999 V2000
   -5.3420   -1.0931    0.1868 O   0  0  0  0  0  0  0  0  0  0  0  0
   -5.3421    1.0931    0.1860 O   0  0  0  0  0  0  0  0  0  0  0  0
    1.0658    2.1029   -0.0079 N   0  0  0  0  0  0  0  0  0  0  0  0
    1.0658   -2.1029   -0.0080 N   0  0  0  0  0  0  0  0  0  0  0  0
   -4.7726   -0.0000    0.1279 N   0  0  0  0  0  0  0  0  0  0  0  0
   -0.5625   -0.0000   -0.2567 C   0  0  0  0  0  3  0  0  0  0  0  0
   -1.2447    1.2363   -0.2207 C   0  0  0  0  0  0  0  0  0  0  0  0
   -2.6386    1.2391   -0.0946 C   0  0  0  0  0  0  0  0  0  0  0  0
   -3.3048   -0.0000   -0.0230 C   0  0  0  0  0  0  0  0  0  0  0  0
   -2.6386   -1.2392   -0.0946 C   0  0  0  0  0  0  0  0  0  0  0  0
   -1.2447   -1.2363   -0.2206 C   0  0  0  0  0  0  0  0  0  0  0  0
   -0.3473    2.4302   -0.4282 C   0  0  0  0  0  0  0  0  0  0  0  0
    2.0545    2.8610   -0.8045 C   0  0  0  0  0  0  0  0  0  0  0  0
    1.2523    2.3945    1.4357 C   0  0  0  0  0  0  0  0  0  0  0  0
   -0.3473   -2.4302   -0.4282 C   0  0  0  0  0  0  0  0  0  0  0  0
    2.0545   -2.8608   -0.8048 C   0  0  0  0  0  0  0  0  0  0  0  0
    1.2526   -2.3947    1.4355 C   0  0  0  0  0  0  0  0  0  0  0  0
   -3.2405    2.1577   -0.0506 H   0  0  0  0  0  0  0  0  0  0  0  0
   -3.2405   -2.1578   -0.0504 H   0  0  0  0  0  0  0  0  0  0  0  0
   -0.6919    3.3514    0.0924 H   0  0  0  0  0  0  0  0  0  0  0  0
   -0.3119    2.6655   -1.5127 H   0  0  0  0  0  0  0  0  0  0  0  0
    1.9242    3.9565   -0.6509 H   0  0  0  0  0  0  0  0  0  0  0  0
    1.9245    2.6191   -1.8755 H   0  0  0  0  0  0  0  0  0  0  0  0
    3.0672    2.5436   -0.4922 H   0  0  0  0  0  0  0  0  0  0  0  0
    2.2534    2.0368    1.7410 H   0  0  0  0  0  0  0  0  0  0  0  0
    0.4815    1.8597    2.0209 H   0  0  0  0  0  0  0  0  0  0  0  0
    1.1628    3.4898    1.6202 H   0  0  0  0  0  0  0  0  0  0  0  0
   -0.3120   -2.6657   -1.5126 H   0  0  0  0  0  0  0  0  0  0  0  0
   -0.6918   -3.3514    0.0926 H   0  0  0  0  0  0  0  0  0  0  0  0
    3.0672   -2.5435   -0.4926 H   0  0  0  0  0  0  0  0  0  0  0  0
    1.9244   -2.6187   -1.8757 H   0  0  0  0  0  0  0  0  0  0  0  0
    1.9242   -3.9564   -0.6514 H   0  0  0  0  0  0  0  0  0  0  0  0
    1.1631   -3.4900    1.6199 H   0  0  0  0  0  0  0  0  0  0  0  0
    0.4818   -1.8600    2.0209 H   0  0  0  0  0  0  0  0  0  0  0  0
    2.2537   -2.0369    1.7408 H   0  0  0  0  0  0  0  0  0  0  0  0
  3 14  1  0  0  0  0
  4 17  1  0  0  0  0
  5  2  2  0  0  0  0
  5  1  2  0  0  0  0
  6  7  2  0  0  0  0
  6 11  1  0  0  0  0
  7  8  1  0  0  0  0
  8 18  1  0  0  0  0
  8  9  2  0  0  0  0
  9  5  1  0  0  0  0
 10 19  1  0  0  0  0
 10  9  1  0  0  0  0
 11 10  2  0  0  0  0
 12  7  1  0  0  0  0
 12  3  1  0  0  0  0
 12 20  1  0  0  0  0
 13 22  1  0  0  0  0
 13 24  1  0  0  0  0
 13  3  1  0  0  0  0
 14 27  1  0  0  0  0
 14 25  1  0  0  0  0
 14 26  1  0  0  0  0
 15 11  1  0  0  0  0
 15  4  1  0  0  0  0
 15 29  1  0  0  0  0
 16 32  1  0  0  0  0
 16 30  1  0  0  0  0
 16  4  1  0  0  0  0
 17 33  1  0  0  0  0
 17 35  1  0  0  0  0
 17 34  1  0  0  0  0
 21 12  1  0  0  0  0
 23 13  1  0  0  0  0
 28 15  1  0  0  0  0
 31 16  1  0  0  0  0
M  END
