4,5,6
 OpenBabel05122313063D

 28 29  0  0  0  0  0  0  0  0999 V2000
    5.7789   -1.3232    0.0756 Cl  0  0  0  0  0  0  0  0  0  0  0  0
    3.4520    0.5399    0.1014 N   0  0  0  0  0  0  0  0  0  0  0  0
    4.4370    0.8247    0.1559 H   0  0  0  0  0  0  0  0  0  0  0  0
    2.4566    1.4176    0.0629 N   0  0  0  0  0  2  0  0  0  0  0  0
    0.1746    2.7050   -0.0681 N   0  0  0  0  0  2  0  0  0  0  0  0
    1.7152   -1.1436   -0.0920 C   0  0  0  0  0  2  0  0  0  0  0  0
    1.3930   -2.5009   -0.2275 C   0  0  0  0  0  3  0  0  0  0  0  0
    0.3455   -2.8196   -0.3125 H   0  0  0  0  0  0  0  0  0  0  0  0
    2.3931   -3.4940   -0.2628 C   0  0  0  0  0  0  0  0  0  0  0  0
    2.1056   -4.5503   -0.3688 H   0  0  0  0  0  0  0  0  0  0  0  0
    3.7474   -3.1544   -0.1646 C   0  0  0  0  0  0  0  0  0  0  0  0
    4.5365   -3.9183   -0.1897 H   0  0  0  0  0  0  0  0  0  0  0  0
    4.0988   -1.8039   -0.0373 C   0  0  0  0  0  0  0  0  0  0  0  0
    3.1013   -0.8087   -0.0043 C   0  0  0  0  0  0  0  0  0  0  0  0
    2.5887    2.7251    0.1595 C   0  0  0  0  0  0  0  0  0  0  0  0
    1.3210    3.4582    0.0499 C   0  0  0  0  0  0  0  0  0  0  0  0
    1.2555    4.8651    0.0347 C   0  0  0  0  0  0  0  0  0  0  0  0
    2.1737    5.4591    0.1310 H   0  0  0  0  0  0  0  0  0  0  0  0
    0.0189    5.5047   -0.1182 C   0  0  0  0  0  0  0  0  0  0  0  0
   -0.0362    6.6032   -0.1324 H   0  0  0  0  0  0  0  0  0  0  0  0
   -1.1337    4.7250   -0.2614 C   0  0  0  0  0  0  0  0  0  0  0  0
   -2.1270    5.1744   -0.3951 H   0  0  0  0  0  0  0  0  0  0  0  0
   -1.0032    3.3280   -0.2299 C   0  0  0  0  0  0  0  0  0  0  0  0
   -1.8839    2.6813   -0.3356 H   0  0  0  0  0  0  0  0  0  0  0  0
    3.9359    3.3533    0.3339 C   0  0  0  0  0  0  0  0  0  0  0  0
    4.4890    2.8660    1.1660 H   0  0  0  0  0  0  0  0  0  0  0  0
    3.8743    4.4284    0.5722 H   0  0  0  0  0  0  0  0  0  0  0  0
    4.5539    3.2489   -0.5850 H   0  0  0  0  0  0  0  0  0  0  0  0
  2  3  1  0  0  0  0
  4  2  1  0  0  0  0
  4 15  1  0  0  0  0
  5 16  1  0  0  0  0
  6 14  1  0  0  0  0
  7  6  1  0  0  0  0
  8  7  1  0  0  0  0
  9  7  1  0  0  0  0
  9 11  2  0  0  0  0
 10  9  1  0  0  0  0
 11 13  1  0  0  0  0
 12 11  1  0  0  0  0
 13 14  2  0  0  0  0
 13  1  1  0  0  0  0
 14  2  1  0  0  0  0
 15 25  1  0  0  0  0
 16 15  2  0  0  0  0
 17 16  1  0  0  0  0
 17 18  1  0  0  0  0
 19 17  2  0  0  0  0
 20 19  1  0  0  0  0
 21 23  2  0  0  0  0
 21 19  1  0  0  0  0
 22 21  1  0  0  0  0
 23  5  1  0  0  0  0
 24 23  1  0  0  0  0
 25 27  1  0  0  0  0
 25 26  1  0  0  0  0
 28 25  1  0  0  0  0
M  END
