1,2,4
 OpenBabel05122313063D

 40 43  0  0  1  0  0  0  0  0999 V2000
    1.9492    2.0127    0.3775 N   0  0  0  0  0  2  0  0  0  0  0  0
   -0.2436    1.5413   -0.9205 N   0  0  0  0  0  2  0  0  0  0  0  0
   -1.4907    1.4925   -1.4228 N   0  0  0  0  0  0  0  0  0  0  0  0
    2.6976   -0.3511    1.2217 C   0  0  0  0  0  3  0  0  0  0  0  0
    3.0592   -1.6340    1.6784 C   0  0  0  0  0  0  0  0  0  0  0  0
    2.4413   -2.5039    1.4100 H   0  0  0  0  0  0  0  0  0  0  0  0
    4.2010   -1.8216    2.4714 C   0  0  0  0  0  0  0  0  0  0  0  0
    4.4620   -2.8346    2.8166 H   0  0  0  0  0  0  0  0  0  0  0  0
    5.0175   -0.7316    2.8300 C   0  0  0  0  0  0  0  0  0  0  0  0
    5.9109   -0.8882    3.4523 H   0  0  0  0  0  0  0  0  0  0  0  0
    4.6841    0.5530    2.3915 C   0  0  0  0  0  0  0  0  0  0  0  0
    5.3191    1.4071    2.6744 H   0  0  0  0  0  0  0  0  0  0  0  0
    3.5367    0.7559    1.5943 C   0  0  0  0  0  0  0  0  0  0  0  0
    3.1096    2.0663    1.1081 C   0  0  2  0  0  3  0  0  0  0  0  0
    3.7261    3.3176    1.3070 C   0  0  0  0  0  0  0  0  0  0  0  0
    4.6565    3.3748    1.8874 H   0  0  0  0  0  0  0  0  0  0  0  0
    3.1500    4.4752    0.7685 C   0  0  0  0  0  0  0  0  0  0  0  0
    3.6329    5.4511    0.9222 H   0  0  0  0  0  0  0  0  0  0  0  0
    1.9528    4.3933    0.0386 C   0  0  0  0  0  0  0  0  0  0  0  0
    1.4759    5.2877   -0.3843 H   0  0  0  0  0  0  0  0  0  0  0  0
    1.3638    3.1335   -0.1395 C   0  0  0  0  0  0  0  0  0  0  0  0
    0.0981    2.8519   -0.8093 C   0  0  2  0  0  3  0  0  0  0  0  0
   -0.9626    3.6606   -1.2857 C   0  0  0  0  0  0  0  0  0  0  0  0
   -1.0191    4.7512   -1.3383 H   0  0  0  0  0  0  0  0  0  0  0  0
   -1.9585    2.7632   -1.6614 C   0  0  0  0  0  0  0  0  0  0  0  0
   -3.3138    3.0517   -2.2393 C   0  0  0  0  0  0  0  0  0  0  0  0
   -2.1437    0.2261   -1.5759 C   0  0  0  0  0  0  0  0  0  0  0  0
   -3.2457   -0.0808   -0.7628 C   0  0  0  0  0  0  0  0  0  0  0  0
   -3.6102    0.6507   -0.0284 H   0  0  0  0  0  0  0  0  0  0  0  0
   -3.8286   -1.3510   -0.8741 C   0  0  0  0  0  0  0  0  0  0  0  0
   -4.6818   -1.6107   -0.2307 H   0  0  0  0  0  0  0  0  0  0  0  0
   -3.3041   -2.2964   -1.7689 C   0  0  0  0  0  0  0  0  0  0  0  0
   -3.7506   -3.2999   -1.8314 H   0  0  0  0  0  0  0  0  0  0  0  0
   -2.1955   -1.9740   -2.5694 C   0  0  0  0  0  0  0  0  0  0  0  0
   -1.7753   -2.7186   -3.2605 H   0  0  0  0  0  0  0  0  0  0  0  0
   -1.6067   -0.7068   -2.4773 C   0  0  0  0  0  0  0  0  0  0  0  0
   -0.7231   -0.4419   -3.0753 H   0  0  0  0  0  0  0  0  0  0  0  0
   -3.4016    4.3595   -2.5601 F   0  0  0  0  0  0  0  0  0  0  0  0
   -4.3120    2.7749   -1.3659 F   0  0  0  0  0  0  0  0  0  0  0  0
   -3.5449    2.3243   -3.3555 F   0  0  0  0  0  0  0  0  0  0  0  0
  1 14  1  0  0  0  0
  2 22  1  0  0  0  0
  3  2  1  0  0  0  0
  4 13  2  0  0  0  0
  4  5  1  0  0  0  0
  5  7  2  0  0  0  0
  6  5  1  0  0  0  0
  7  8  1  0  0  0  0
  7  9  1  0  0  0  0
  9 10  1  0  0  0  0
 11 12  1  0  0  0  0
 11  9  2  0  0  0  0
 13 11  1  0  0  0  0
 14 15  1  0  0  0  0
 14 13  1  1  0  0  0
 15 16  1  0  0  0  0
 17 18  1  0  0  0  0
 17 15  2  0  0  0  0
 19 17  1  0  0  0  0
 20 19  1  0  0  0  0
 21 19  2  0  0  0  0
 21  1  1  0  0  0  0
 22 21  1  1  0  0  0
 23 22  1  0  0  0  0
 24 23  1  0  0  0  0
 25  3  1  0  0  0  0
 25 23  2  0  0  0  0
 26 25  1  0  0  0  0
 26 39  1  0  0  0  0
 27  3  1  0  0  0  0
 27 28  1  0  0  0  0
 28 29  1  0  0  0  0
 30 28  2  0  0  0  0
 30 31  1  0  0  0  0
 32 30  1  0  0  0  0
 33 32  1  0  0  0  0
 34 36  1  0  0  0  0
 34 32  2  0  0  0  0
 35 34  1  0  0  0  0
 36 27  2  0  0  0  0
 37 36  1  0  0  0  0
 38 26  1  0  0  0  0
 40 26  1  0  0  0  0
M  END
