1,2,3
 OpenBabel05122313063D

 56 59  0  0  1  0  0  0  0  0999 V2000
    2.4031   -2.0645    0.0619 N   0  0  0  0  0  2  0  0  0  0  0  0
    0.8621    0.0475   -0.0836 N   0  0  0  0  0  2  0  0  0  0  0  0
    2.6060    2.0136   -0.1490 C   0  0  0  0  0  2  0  0  0  0  0  0
    3.5573    3.0509   -0.1808 C   0  0  0  0  0  0  0  0  0  0  0  0
    4.6255    2.7915   -0.1403 H   0  0  0  0  0  0  0  0  0  0  0  0
    3.1573    4.3947   -0.2619 C   0  0  0  0  0  0  0  0  0  0  0  0
    3.9207    5.1885   -0.2853 H   0  0  0  0  0  0  0  0  0  0  0  0
    1.7939    4.7399   -0.3136 C   0  0  0  0  0  0  0  0  0  0  0  0
    1.4903    5.7954   -0.3770 H   0  0  0  0  0  0  0  0  0  0  0  0
    0.8235    3.7323   -0.2836 C   0  0  0  0  0  0  0  0  0  0  0  0
   -0.2435    4.0029   -0.3239 H   0  0  0  0  0  0  0  0  0  0  0  0
    1.2095    2.3779   -0.2021 C   0  0  1  0  0  3  0  0  0  0  0  0
    0.2490    1.2678   -0.1668 C   0  0  0  0  0  0  0  0  0  0  0  0
   -1.1540    1.3105   -0.2000 C   0  0  0  0  0  0  0  0  0  0  0  0
   -1.6640    2.2823   -0.2385 H   0  0  0  0  0  0  0  0  0  0  0  0
   -1.9111    0.1174   -0.1450 C   0  0  0  0  0  0  0  0  0  0  0  0
   -1.2232   -1.1163   -0.0589 C   0  0  0  0  0  0  0  0  0  0  0  0
   -1.7850   -2.0592   -0.0471 H   0  0  0  0  0  0  0  0  0  0  0  0
    0.1783   -1.1251   -0.0314 C   0  0  0  0  0  0  0  0  0  0  0  0
    1.0526   -2.3173    0.0452 C   0  0  0  0  0  0  0  0  0  0  0  0
    0.5756   -3.6392    0.0984 C   0  0  0  0  0  0  0  0  0  0  0  0
   -0.5058   -3.8319    0.0837 H   0  0  0  0  0  0  0  0  0  0  0  0
    1.4850   -4.7005    0.1685 C   0  0  0  0  0  0  0  0  0  0  0  0
    1.1221   -5.7380    0.2098 H   0  0  0  0  0  0  0  0  0  0  0  0
    2.8613   -4.4216    0.1847 C   0  0  0  0  0  0  0  0  0  0  0  0
    3.6087   -5.2256    0.2388 H   0  0  0  0  0  0  0  0  0  0  0  0
    3.2777   -3.0872    0.1295 C   0  0  0  0  0  0  0  0  0  0  0  0
    4.3403   -2.7938    0.1376 H   0  0  0  0  0  0  0  0  0  0  0  0
   -3.3921    0.1575   -0.1770 C   0  0  0  0  0  0  0  0  0  0  0  0
   -4.0756    1.1422   -0.9286 C   0  0  0  0  0  0  0  0  0  0  0  0
   -3.5005    1.8649   -1.5265 H   0  0  0  0  0  0  0  0  0  0  0  0
   -5.4730    1.1831   -0.9598 C   0  0  0  0  0  0  0  0  0  0  0  0
   -6.0020    1.9323   -1.5678 H   0  0  0  0  0  0  0  0  0  0  0  0
   -6.2279    0.2461   -0.2253 C   0  0  0  0  0  0  0  0  0  0  0  0
   -5.5585   -0.7508    0.5136 C   0  0  0  0  0  0  0  0  0  0  0  0
   -6.1388   -1.4989    1.0744 H   0  0  0  0  0  0  0  0  0  0  0  0
   -4.1601   -0.7916    0.5370 C   0  0  0  0  0  0  0  0  0  0  0  0
   -3.6521   -1.5568    1.1430 H   0  0  0  0  0  0  0  0  0  0  0  0
   -8.0406    0.3899   -0.2615 P   0  0  0  0  0  0  0  0  0  0  0  0
   -8.5439    1.0786   -1.4913 O   0  0  0  0  0  0  0  0  0  0  0  0
   -8.5036    1.1361    1.1055 O   0  0  0  0  0  0  0  0  0  0  0  0
   -8.2730    0.6230    2.4334 C   0  0  0  0  0  0  0  0  0  0  0  0
   -8.1026   -0.4739    2.3950 H   0  0  0  0  0  0  0  0  0  0  0  0
   -9.2221    0.7826    2.9861 H   0  0  0  0  0  0  0  0  0  0  0  0
   -7.1250    1.3524    3.1108 C   0  0  0  0  0  0  0  0  0  0  0  0
   -7.0216    1.0100    4.1606 H   0  0  0  0  0  0  0  0  0  0  0  0
   -7.3103    2.4446    3.1191 H   0  0  0  0  0  0  0  0  0  0  0  0
   -6.1645    1.1677    2.5905 H   0  0  0  0  0  0  0  0  0  0  0  0
   -8.5710   -1.1377    0.0392 O   0  0  0  0  0  0  0  0  0  0  0  0
   -8.5908   -2.0807   -1.0578 C   0  0  0  0  0  0  0  0  0  0  0  0
   -8.5033   -3.0809   -0.5856 H   0  0  0  0  0  0  0  0  0  0  0  0
   -7.6905   -1.9355   -1.6972 H   0  0  0  0  0  0  0  0  0  0  0  0
   -9.8641   -1.9547   -1.8762 C   0  0  0  0  0  0  0  0  0  0  0  0
   -9.8798   -2.7171   -2.6815 H   0  0  0  0  0  0  0  0  0  0  0  0
   -9.9210   -0.9478   -2.3335 H   0  0  0  0  0  0  0  0  0  0  0  0
  -10.7559   -2.1035   -1.2358 H   0  0  0  0  0  0  0  0  0  0  0  0
  1 27  1  0  0  0  0
  2 19  1  0  0  0  0
  4  3  1  0  0  0  0
  4  5  1  0  0  0  0
  6  4  2  0  0  0  0
  7  6  1  0  0  0  0
  8 10  2  0  0  0  0
  8  6  1  0  0  0  0
  9  8  1  0  0  0  0
 10 12  1  0  0  0  0
 11 10  1  0  0  0  0
 12 13  1  6  0  0  0
 12  3  1  0  0  0  0
 13  2  1  0  0  0  0
 14 13  2  0  0  0  0
 14 16  1  0  0  0  0
 15 14  1  0  0  0  0
 16 17  2  0  0  0  0
 17 18  1  0  0  0  0
 17 19  1  0  0  0  0
 19 20  2  0  0  0  0
 20  1  1  0  0  0  0
 20 21  1  0  0  0  0
 21 23  2  0  0  0  0
 22 21  1  0  0  0  0
 23 25  1  0  0  0  0
 23 24  1  0  0  0  0
 25 26  1  0  0  0  0
 27 28  1  0  0  0  0
 27 25  2  0  0  0  0
 29 16  1  0  0  0  0
 29 37  1  0  0  0  0
 30 29  2  0  0  0  0
 31 30  1  0  0  0  0
 32 30  1  0  0  0  0
 32 34  2  0  0  0  0
 33 32  1  0  0  0  0
 34 35  1  0  0  0  0
 35 37  2  0  0  0  0
 35 36  1  0  0  0  0
 37 38  1  0  0  0  0
 39 34  1  0  0  0  0
 39 49  1  0  0  0  0
 39 41  1  0  0  0  0
 40 39  2  0  0  0  0
 41 42  1  0  0  0  0
 42 44  1  0  0  0  0
 42 45  1  0  0  0  0
 43 42  1  0  0  0  0
 45 47  1  0  0  0  0
 45 46  1  0  0  0  0
 48 45  1  0  0  0  0
 50 51  1  0  0  0  0
 50 49  1  0  0  0  0
 52 50  1  0  0  0  0
 53 56  1  0  0  0  0
 53 50  1  0  0  0  0
 54 53  1  0  0  0  0
 55 53  1  0  0  0  0
M  END
