4,5,17
 OpenBabel05122313063D

 56 60  0  0  1  0  0  0  0  0999 V2000
    1.5122   -0.8334    2.6222 S   0  0  0  0  0  0  0  0  0  0  0  0
    4.1292    0.6070    1.9046 S   0  0  0  0  0  0  0  0  0  0  0  0
   -1.0731   -1.4064    3.4269 O   0  0  0  0  0  0  0  0  0  0  0  0
    0.1785   -0.8731    1.5714 N   0  0  0  0  0  2  0  0  0  0  0  0
    2.3851   -0.1380    0.1131 N   0  0  0  0  0  2  0  0  0  0  0  0
   -6.4592    0.4978   -0.9337 F   0  0  0  0  0  0  0  0  0  0  0  0
    1.4106    0.1781    3.6925 O   0  0  0  0  0  0  0  0  0  0  0  0
    2.0523   -2.1772    2.9292 O   0  0  0  0  0  0  0  0  0  0  0  0
   -2.2649   -0.9147    1.4222 C   0  0  0  0  0  0  0  0  0  0  0  0
   -5.6564   -1.1743   -2.0799 F   0  0  0  0  0  0  0  0  0  0  0  0
   -2.0440    2.6134    0.3917 C   0  0  0  0  0  0  0  0  0  0  0  0
   -2.4902    0.1557    0.5154 C   0  0  0  0  0  0  0  0  0  0  0  0
   -3.7462    0.2224   -0.1235 C   0  0  0  0  0  0  0  0  0  0  0  0
   -3.9516    1.0661   -0.7984 H   0  0  0  0  0  0  0  0  0  0  0  0
   -6.9272   -1.5543   -0.3445 F   0  0  0  0  0  0  0  0  0  0  0  0
    2.6326   -0.1130    1.4070 C   0  0  1  0  0  3  0  0  0  0  0  0
   -0.2488    0.9879   -0.2906 C   0  0  0  0  0  3  0  0  0  0  0  0
   -1.5073    1.2307    0.1898 C   0  0  0  0  0  0  0  0  0  0  0  0
    0.6925    2.1060   -0.5343 C   0  0  0  0  0  0  0  0  0  0  0  0
   -3.2819   -1.8598    1.6660 C   0  0  0  0  0  0  0  0  0  0  0  0
   -3.0923   -2.6360    2.4219 H   0  0  0  0  0  0  0  0  0  0  0  0
   -1.0126   -1.0786    2.2389 C   0  0  0  0  0  0  0  0  0  0  0  0
    3.4397    0.4298   -0.6122 C   0  0  0  0  0  0  0  0  0  0  0  0
    1.3063    2.7543    0.5641 C   0  0  0  0  0  0  0  0  0  0  0  0
    1.0399    2.4390    1.5846 H   0  0  0  0  0  0  0  0  0  0  0  0
   -3.0727    5.2122    0.8615 C   0  0  0  0  0  0  0  0  0  0  0  0
   -3.4696    6.2224    1.0443 H   0  0  0  0  0  0  0  0  0  0  0  0
    1.0395    2.5242   -1.8374 C   0  0  0  0  0  0  0  0  0  0  0  0
    0.5650    2.0282   -2.6989 H   0  0  0  0  0  0  0  0  0  0  0  0
   -4.4885   -1.8251    0.9610 C   0  0  0  0  0  0  0  0  0  0  0  0
   -5.2598   -2.5911    1.1213 H   0  0  0  0  0  0  0  0  0  0  0  0
   -2.0055    3.6007   -0.6169 C   0  0  0  0  0  0  0  0  0  0  0  0
   -1.5724    3.3531   -1.5962 H   0  0  0  0  0  0  0  0  0  0  0  0
   -4.7126   -0.7771    0.0501 C   0  0  0  0  0  0  0  0  0  0  0  0
    4.5056    0.8837    0.2158 C   0  0  0  0  0  0  0  0  0  0  0  0
    3.5303    0.5967   -2.0068 C   0  0  0  0  0  0  0  0  0  0  0  0
    2.6914    0.2980   -2.6431 H   0  0  0  0  0  0  0  0  0  0  0  0
    5.6584    1.4774   -0.3230 C   0  0  0  0  0  0  0  0  0  0  0  0
    6.4724    1.8247    0.3290 H   0  0  0  0  0  0  0  0  0  0  0  0
    1.9642    3.5579   -2.0414 C   0  0  0  0  0  0  0  0  0  0  0  0
    2.2118    3.8765   -3.0658 H   0  0  0  0  0  0  0  0  0  0  0  0
    5.7359    1.6137   -1.7126 C   0  0  0  0  0  0  0  0  0  0  0  0
    6.6292    2.0730   -2.1609 H   0  0  0  0  0  0  0  0  0  0  0  0
    2.2526    3.7672    0.3580 C   0  0  0  0  0  0  0  0  0  0  0  0
    2.7286    4.2489    1.2261 H   0  0  0  0  0  0  0  0  0  0  0  0
   -2.5133    4.8868   -0.3840 C   0  0  0  0  0  0  0  0  0  0  0  0
   -2.4746    5.6404   -1.1856 H   0  0  0  0  0  0  0  0  0  0  0  0
    4.6801    1.1792   -2.5436 C   0  0  0  0  0  0  0  0  0  0  0  0
    4.7565    1.3155   -3.6322 H   0  0  0  0  0  0  0  0  0  0  0  0
    2.5856    4.1756   -0.9445 C   0  0  0  0  0  0  0  0  0  0  0  0
    3.3243    4.9755   -1.1038 H   0  0  0  0  0  0  0  0  0  0  0  0
   -3.1294    4.2365    1.8703 C   0  0  0  0  0  0  0  0  0  0  0  0
   -3.5680    4.4799    2.8502 H   0  0  0  0  0  0  0  0  0  0  0  0
   -5.9479   -0.7490   -0.8133 C   0  0  0  0  0  0  0  0  0  0  0  0
   -2.6282    2.9494    1.6351 C   0  0  0  0  0  0  0  0  0  0  0  0
   -2.6738    2.1875    2.4286 H   0  0  0  0  0  0  0  0  0  0  0  0
  1  8  2  0  0  0  0
  1  7  2  0  0  0  0
  4 22  1  0  0  0  0
  4  1  1  0  0  0  0
  5 16  1  0  0  0  0
  6 54  1  0  0  0  0
  9 20  1  0  0  0  0
  9 22  1  0  0  0  0
 10 54  1  0  0  0  0
 11 55  1  0  0  0  0
 12  9  2  0  0  0  0
 13 34  2  0  0  0  0
 13 12  1  0  0  0  0
 14 13  1  0  0  0  0
 16  2  1  0  0  0  0
 16  1  1  6  0  0  0
 17 18  2  0  0  0  0
 18 11  1  0  0  0  0
 18 12  1  0  0  0  0
 19 17  1  0  0  0  0
 19 24  1  0  0  0  0
 20 21  1  0  0  0  0
 22  3  2  0  0  0  0
 23  5  1  0  0  0  0
 23 35  1  0  0  0  0
 24 25  1  0  0  0  0
 26 27  1  0  0  0  0
 26 52  1  0  0  0  0
 28 19  2  0  0  0  0
 29 28  1  0  0  0  0
 30 31  1  0  0  0  0
 30 20  2  0  0  0  0
 32 46  1  0  0  0  0
 32 11  2  0  0  0  0
 33 32  1  0  0  0  0
 34 30  1  0  0  0  0
 35  2  1  0  0  0  0
 36 23  2  0  0  0  0
 37 36  1  0  0  0  0
 38 35  2  0  0  0  0
 38 39  1  0  0  0  0
 40 28  1  0  0  0  0
 40 50  2  0  0  0  0
 41 40  1  0  0  0  0
 42 38  1  0  0  0  0
 43 42  1  0  0  0  0
 44 24  2  0  0  0  0
 44 45  1  0  0  0  0
 46 26  2  0  0  0  0
 47 46  1  0  0  0  0
 48 36  1  0  0  0  0
 48 42  2  0  0  0  0
 49 48  1  0  0  0  0
 50 44  1  0  0  0  0
 51 50  1  0  0  0  0
 52 53  1  0  0  0  0
 54 15  1  0  0  0  0
 54 34  1  0  0  0  0
 55 52  2  0  0  0  0
 55 56  1  0  0  0  0
M  END
