1,2,28
 OpenBabel05122313063D

 32 34  0  0  0  0  0  0  0  0999 V2000
    1.4439   -2.2339   -0.0335 N   0  0  0  0  0  2  0  0  0  0  0  0
    2.9143   -0.0308    0.0434 N   0  0  0  0  0  2  0  0  0  0  0  0
    0.6050   -3.2825   -0.0858 C   0  0  0  0  0  0  0  0  0  0  0  0
   -0.4687   -3.0364   -0.1192 H   0  0  0  0  0  0  0  0  0  0  0  0
    1.0800   -4.6003   -0.0978 C   0  0  0  0  0  0  0  0  0  0  0  0
    0.3692   -5.4373   -0.1396 H   0  0  0  0  0  0  0  0  0  0  0  0
    2.4649   -4.8161   -0.0566 C   0  0  0  0  0  0  0  0  0  0  0  0
    2.8717   -5.8380   -0.0660 H   0  0  0  0  0  0  0  0  0  0  0  0
    3.3335   -3.7171   -0.0046 C   0  0  0  0  0  0  0  0  0  0  0  0
    4.4207   -3.8696    0.0259 H   0  0  0  0  0  0  0  0  0  0  0  0
    2.8008   -2.4178    0.0066 C   0  0  0  0  0  0  0  0  0  0  0  0
    3.6259   -1.1855    0.0564 C   0  0  0  0  0  0  0  0  0  0  0  0
    5.0254   -1.1140    0.1099 C   0  0  0  0  0  0  0  0  0  0  0  0
    5.6387   -2.0241    0.1229 H   0  0  0  0  0  0  0  0  0  0  0  0
    5.6304    0.1567    0.1469 C   0  0  0  0  0  0  0  0  0  0  0  0
    6.7268    0.2310    0.1888 H   0  0  0  0  0  0  0  0  0  0  0  0
    4.8591    1.3254    0.1320 C   0  0  0  0  0  0  0  0  0  0  0  0
    5.3384    2.3128    0.1621 H   0  0  0  0  0  0  0  0  0  0  0  0
    3.4535    1.2202    0.0795 C   0  0  0  0  0  0  0  0  0  0  0  0
    2.4501    2.2867    0.0611 C   0  0  0  0  0  0  0  0  0  0  0  0
    2.7557    3.6625    0.0916 C   0  0  0  0  0  0  0  0  0  0  0  0
    3.8048    3.9928    0.1277 H   0  0  0  0  0  0  0  0  0  0  0  0
    1.7343    4.6183    0.0771 C   0  0  0  0  0  0  0  0  0  0  0  0
    1.9950    5.6867    0.1018 H   0  0  0  0  0  0  0  0  0  0  0  0
    0.3763    4.2403    0.0325 C   0  0  0  0  0  0  0  0  0  0  0  0
    0.0560    2.8579    0.0009 C   0  0  0  0  0  3  0  0  0  0  0  0
   -0.9954    2.5388   -0.0322 H   0  0  0  0  0  0  0  0  0  0  0  0
    1.0678    1.9061    0.0138 C   0  0  0  0  0  2  0  0  0  0  0  0
   -0.7253    5.2625    0.0186 C   0  0  0  0  0  0  0  0  0  0  0  0
   -0.3311    6.2952    0.0492 H   0  0  0  0  0  0  0  0  0  0  0  0
   -1.4033    5.1238    0.8861 H   0  0  0  0  0  0  0  0  0  0  0  0
   -1.3502    5.1570   -0.8925 H   0  0  0  0  0  0  0  0  0  0  0  0
  1 11  1  0  0  0  0
  2 12  1  0  0  0  0
  2 19  1  0  0  0  0
  3  1  1  0  0  0  0
  4  3  1  0  0  0  0
  5  3  2  0  0  0  0
  5  7  1  0  0  0  0
  6  5  1  0  0  0  0
  7  9  2  0  0  0  0
  8  7  1  0  0  0  0
  9 11  1  0  0  0  0
  9 10  1  0  0  0  0
 11 12  2  0  0  0  0
 12 13  1  0  0  0  0
 13 14  1  0  0  0  0
 13 15  2  0  0  0  0
 15 16  1  0  0  0  0
 17 15  1  0  0  0  0
 17 18  1  0  0  0  0
 19 17  2  0  0  0  0
 20 19  1  0  0  0  0
 20 21  2  0  0  0  0
 21 22  1  0  0  0  0
 23 21  1  0  0  0  0
 23 24  1  0  0  0  0
 25 23  2  0  0  0  0
 26 28  1  0  0  0  0
 26 25  1  0  0  0  0
 27 26  1  0  0  0  0
 28 20  1  0  0  0  0
 29 25  1  0  0  0  0
 29 30  1  0  0  0  0
 29 31  1  0  0  0  0
 32 29  1  0  0  0  0
M  END
