1,2,17
 OpenBabel05122313063D

 35 38  0  0  1  0  0  0  0  0999 V2000
   -0.7921    1.2586   -0.0002 N   0  0  0  0  0  2  0  0  0  0  0  0
   -2.7472   -0.4872   -0.0002 N   0  0  0  0  0  2  0  0  0  0  0  0
    2.8637    1.6846    0.0001 C   0  0  0  0  0  0  0  0  0  0  0  0
    3.0396    2.7727    0.0001 H   0  0  0  0  0  0  0  0  0  0  0  0
    5.3280    1.3169    0.0005 C   0  0  0  0  0  0  0  0  0  0  0  0
    5.4871    2.4070    0.0005 H   0  0  0  0  0  0  0  0  0  0  0  0
    3.9908    0.8202    0.0003 C   0  0  0  0  0  0  0  0  0  0  0  0
    6.4092    0.4485    0.0007 C   0  0  0  0  0  0  0  0  0  0  0  0
    7.4362    0.8438    0.0008 H   0  0  0  0  0  0  0  0  0  0  0  0
    6.1935   -0.9571    0.0007 C   0  0  0  0  0  0  0  0  0  0  0  0
    7.0573   -1.6394    0.0008 H   0  0  0  0  0  0  0  0  0  0  0  0
    4.9046   -1.4717    0.0005 C   0  0  0  0  0  0  0  0  0  0  0  0
    4.7366   -2.5598    0.0005 H   0  0  0  0  0  0  0  0  0  0  0  0
    3.7691   -0.6092    0.0003 C   0  0  0  0  0  0  0  0  0  0  0  0
    2.4346   -1.1150    0.0001 C   0  0  0  0  0  0  0  0  0  0  0  0
    2.2740   -2.2042    0.0001 H   0  0  0  0  0  0  0  0  0  0  0  0
    1.3325   -0.2692   -0.0001 C   0  0  0  0  0  2  0  0  0  0  0  0
    1.5682    1.1706   -0.0000 C   0  0  2  0  0  3  0  0  0  0  0  0
    0.3624    2.0031   -0.0002 C   0  0  0  0  0  0  0  0  0  0  0  0
    0.2535    3.4051   -0.0005 C   0  0  0  0  0  0  0  0  0  0  0  0
    1.1638    4.0199   -0.0005 H   0  0  0  0  0  0  0  0  0  0  0  0
   -1.0143    4.0052   -0.0007 C   0  0  0  0  0  0  0  0  0  0  0  0
   -1.1022    5.1013   -0.0009 H   0  0  0  0  0  0  0  0  0  0  0  0
   -2.1732    3.2125   -0.0005 C   0  0  0  0  0  0  0  0  0  0  0  0
   -3.1685    3.6761   -0.0007 H   0  0  0  0  0  0  0  0  0  0  0  0
   -2.0398    1.8144   -0.0002 C   0  0  0  0  0  0  0  0  0  0  0  0
   -3.1392    0.8272    0.0001 C   0  0  0  0  0  0  0  0  0  0  0  0
   -4.5054    1.1616    0.0010 C   0  0  0  0  0  0  0  0  0  0  0  0
   -4.8143    2.2158    0.0013 H   0  0  0  0  0  0  0  0  0  0  0  0
   -5.4632    0.1408    0.0016 C   0  0  0  0  0  0  0  0  0  0  0  0
   -6.5346    0.3898    0.0023 H   0  0  0  0  0  0  0  0  0  0  0  0
   -5.0397   -1.1985    0.0012 C   0  0  0  0  0  0  0  0  0  0  0  0
   -5.7618   -2.0272    0.0017 H   0  0  0  0  0  0  0  0  0  0  0  0
   -3.6672   -1.4703    0.0003 C   0  0  0  0  0  0  0  0  0  0  0  0
   -3.2488   -2.4915   -0.0000 H   0  0  0  0  0  0  0  0  0  0  0  0
  2 27  1  0  0  0  0
  2 34  1  0  0  0  0
  3  4  1  0  0  0  0
  3  7  2  0  0  0  0
  5  6  1  0  0  0  0
  5  8  2  0  0  0  0
  7  5  1  0  0  0  0
  8  9  1  0  0  0  0
 10  8  1  0  0  0  0
 10 11  1  0  0  0  0
 12 10  2  0  0  0  0
 13 12  1  0  0  0  0
 14  7  1  0  0  0  0
 14 12  1  0  0  0  0
 15 14  2  0  0  0  0
 16 15  1  0  0  0  0
 17 18  1  0  0  0  0
 17 15  1  0  0  0  0
 18 19  1  6  0  0  0
 18  3  1  0  0  0  0
 19  1  1  0  0  0  0
 20 19  2  0  0  0  0
 21 20  1  0  0  0  0
 22 24  2  0  0  0  0
 22 20  1  0  0  0  0
 23 22  1  0  0  0  0
 24 26  1  0  0  0  0
 25 24  1  0  0  0  0
 26  1  1  0  0  0  0
 26 27  2  0  0  0  0
 27 28  1  0  0  0  0
 28 29  1  0  0  0  0
 28 30  2  0  0  0  0
 30 31  1  0  0  0  0
 32 30  1  0  0  0  0
 32 33  1  0  0  0  0
 34 32  2  0  0  0  0
 35 34  1  0  0  0  0
M  END
