3,4,21
 OpenBabel05122313063D

 67 69  0  0  0  0  0  0  0  0999 V2000
   -5.1541   -0.4233   -0.4445 O   0  0  0  0  0  0  0  0  0  0  0  0
    5.1936   -0.0071   -0.1676 O   0  0  0  0  0  0  0  0  0  0  0  0
   -2.0788    1.4151   -0.2256 N   0  0  0  0  0  2  0  0  0  0  0  0
    1.9810    1.5848   -0.1337 N   0  0  0  0  0  2  0  0  0  0  0  0
   -2.9732    0.4267   -0.3440 C   0  0  0  0  0  3  0  0  0  0  0  0
   -2.5722   -0.5935   -0.4674 H   0  0  0  0  0  0  0  0  0  0  0  0
   -4.3659    0.6659   -0.3112 C   0  0  0  0  0  0  0  0  0  0  0  0
   -4.8124    1.9922   -0.1454 C   0  0  0  0  0  0  0  0  0  0  0  0
   -5.8825    2.2357   -0.1114 H   0  0  0  0  0  0  0  0  0  0  0  0
   -3.8607    3.0127   -0.0171 C   0  0  0  0  0  0  0  0  0  0  0  0
   -4.1876    4.0531    0.1193 H   0  0  0  0  0  0  0  0  0  0  0  0
   -2.4891    2.7264   -0.0546 C   0  0  0  0  0  0  0  0  0  0  0  0
   -1.3846    3.6822    0.0872 C   0  0  0  0  0  0  0  0  0  0  0  0
   -1.4391    5.0788    0.2826 C   0  0  0  0  0  0  0  0  0  0  0  0
   -2.4038    5.6083    0.3335 H   0  0  0  0  0  0  0  0  0  0  0  0
   -0.2416    5.8064    0.4186 C   0  0  0  0  0  0  0  0  0  0  0  0
   -0.2897    6.8948    0.5711 H   0  0  0  0  0  0  0  0  0  0  0  0
    1.0166    5.1754    0.3684 C   0  0  0  0  0  3  0  0  0  0  0  0
    1.9304    5.7794    0.4848 H   0  0  0  0  0  0  0  0  0  0  0  0
    1.0877    3.7803    0.1713 C   0  0  0  0  0  0  0  0  0  0  0  0
   -0.1187    3.0654    0.0290 C   0  0  0  0  0  3  0  0  0  0  0  0
    2.9537    0.6729   -0.2153 C   0  0  0  0  0  0  0  0  0  0  0  0
    2.6502   -0.3677   -0.4086 H   0  0  0  0  0  0  0  0  0  0  0  0
    4.3169    1.0157   -0.0686 C   0  0  0  0  0  0  0  0  0  0  0  0
    4.6457    2.3655    0.1649 C   0  0  0  0  0  0  0  0  0  0  0  0
    5.6881    2.6875    0.2879 H   0  0  0  0  0  0  0  0  0  0  0  0
    3.6107    3.3073    0.2440 C   0  0  0  0  0  0  0  0  0  0  0  0
    3.8445    4.3649    0.4307 H   0  0  0  0  0  0  0  0  0  0  0  0
    2.2728    2.9169    0.0963 C   0  0  0  0  0  0  0  0  0  0  0  0
   -6.5713   -0.2545   -0.4108 C   0  0  0  0  0  0  0  0  0  0  0  0
   -6.8905    0.4341   -1.2286 H   0  0  0  0  0  0  0  0  0  0  0  0
   -6.8739    0.2146    0.5551 H   0  0  0  0  0  0  0  0  0  0  0  0
   -7.2181   -1.6199   -0.5728 C   0  0  0  0  0  0  0  0  0  0  0  0
   -6.8495   -2.2843    0.2378 H   0  0  0  0  0  0  0  0  0  0  0  0
   -6.8651   -2.0679   -1.5263 H   0  0  0  0  0  0  0  0  0  0  0  0
   -8.7470   -1.5549   -0.5514 C   0  0  0  0  0  0  0  0  0  0  0  0
   -9.0873   -1.0912    0.4022 H   0  0  0  0  0  0  0  0  0  0  0  0
   -9.1029   -0.8755   -1.3589 H   0  0  0  0  0  0  0  0  0  0  0  0
   -9.4162   -2.9225   -0.7129 C   0  0  0  0  0  0  0  0  0  0  0  0
   -9.0758   -3.3876   -1.6656 H   0  0  0  0  0  0  0  0  0  0  0  0
   -9.0608   -3.6026    0.0939 H   0  0  0  0  0  0  0  0  0  0  0  0
  -10.9466   -2.8674   -0.6931 C   0  0  0  0  0  0  0  0  0  0  0  0
  -11.2816   -2.3995    0.2595 H   0  0  0  0  0  0  0  0  0  0  0  0
  -11.2967   -2.1850   -1.4996 H   0  0  0  0  0  0  0  0  0  0  0  0
  -11.6067   -4.2371   -0.8544 C   0  0  0  0  0  0  0  0  0  0  0  0
  -11.3183   -4.7130   -1.8150 H   0  0  0  0  0  0  0  0  0  0  0  0
  -12.7127   -4.1652   -0.8361 H   0  0  0  0  0  0  0  0  0  0  0  0
  -11.3030   -4.9291   -0.0413 H   0  0  0  0  0  0  0  0  0  0  0  0
    6.5895    0.2612   -0.0188 C   0  0  0  0  0  0  0  0  0  0  0  0
    6.7788    0.7066    0.9849 H   0  0  0  0  0  0  0  0  0  0  0  0
    6.9109    1.0041   -0.7869 H   0  0  0  0  0  0  0  0  0  0  0  0
    7.3459   -1.0466   -0.1863 C   0  0  0  0  0  0  0  0  0  0  0  0
    8.4150   -0.8398    0.0322 H   0  0  0  0  0  0  0  0  0  0  0  0
    6.9978   -1.7578    0.5943 H   0  0  0  0  0  0  0  0  0  0  0  0
    7.1832   -1.6763   -1.5743 C   0  0  0  0  0  0  0  0  0  0  0  0
    7.5759   -0.9713   -2.3425 H   0  0  0  0  0  0  0  0  0  0  0  0
    6.0983   -1.7825   -1.7822 H   0  0  0  0  0  0  0  0  0  0  0  0
    7.8666   -3.0395   -1.7351 C   0  0  0  0  0  0  0  0  0  0  0  0
    7.4598   -3.7451   -0.9753 H   0  0  0  0  0  0  0  0  0  0  0  0
    7.5813   -3.4676   -2.7210 H   0  0  0  0  0  0  0  0  0  0  0  0
    9.3963   -3.0147   -1.6333 C   0  0  0  0  0  0  0  0  0  0  0  0
    9.7027   -2.6307   -0.6355 H   0  0  0  0  0  0  0  0  0  0  0  0
    9.7963   -2.2837   -2.3718 H   0  0  0  0  0  0  0  0  0  0  0  0
   10.0373   -4.3838   -1.8638 C   0  0  0  0  0  0  0  0  0  0  0  0
    9.6799   -5.1257   -1.1192 H   0  0  0  0  0  0  0  0  0  0  0  0
   11.1425   -4.3402   -1.7877 H   0  0  0  0  0  0  0  0  0  0  0  0
    9.7861   -4.7821   -2.8692 H   0  0  0  0  0  0  0  0  0  0  0  0
  1 30  1  0  0  0  0
  1  7  1  0  0  0  0
  2 24  1  0  0  0  0
  2 49  1  0  0  0  0
  3 12  1  0  0  0  0
  4 29  1  0  0  0  0
  5  7  1  0  0  0  0
  5  3  1  0  0  0  0
  6  5  1  0  0  0  0
  7  8  2  0  0  0  0
  8  9  1  0  0  0  0
  8 10  1  0  0  0  0
 10 11  1  0  0  0  0
 12 10  2  0  0  0  0
 12 13  1  0  0  0  0
 13 14  1  0  0  0  0
 14 15  1  0  0  0  0
 14 16  2  0  0  0  0
 16 17  1  0  0  0  0
 18 16  1  0  0  0  0
 18 19  1  0  0  0  0
 20 18  1  0  0  0  0
 21 13  2  0  0  0  0
 21 20  1  0  0  0  0
 22  4  1  0  0  0  0
 22 24  2  0  0  0  0
 23 22  1  0  0  0  0
 24 25  1  0  0  0  0
 25 27  2  0  0  0  0
 25 26  1  0  0  0  0
 27 28  1  0  0  0  0
 29 20  2  0  0  0  0
 29 27  1  0  0  0  0
 30 32  1  0  0  0  0
 31 30  1  0  0  0  0
 33 36  1  0  0  0  0
 33 30  1  0  0  0  0
 33 34  1  0  0  0  0
 35 33  1  0  0  0  0
 36 37  1  0  0  0  0
 38 36  1  0  0  0  0
 39 42  1  0  0  0  0
 39 36  1  0  0  0  0
 39 41  1  0  0  0  0
 40 39  1  0  0  0  0
 42 43  1  0  0  0  0
 44 42  1  0  0  0  0
 45 47  1  0  0  0  0
 45 42  1  0  0  0  0
 45 48  1  0  0  0  0
 46 45  1  0  0  0  0
 49 50  1  0  0  0  0
 51 49  1  0  0  0  0
 52 49  1  0  0  0  0
 52 53  1  0  0  0  0
 52 54  1  0  0  0  0
 55 52  1  0  0  0  0
 56 55  1  0  0  0  0
 57 55  1  0  0  0  0
 58 61  1  0  0  0  0
 58 55  1  0  0  0  0
 58 59  1  0  0  0  0
 60 58  1  0  0  0  0
 61 62  1  0  0  0  0
 63 61  1  0  0  0  0
 64 66  1  0  0  0  0
 64 61  1  0  0  0  0
 64 65  1  0  0  0  0
 67 64  1  0  0  0  0
M  END
