1,2,3
 OpenBabel05122313063D

 34 35  0  0  0  0  0  0  0  0999 V2000
    0.2708   -0.9269   -1.5788 N   0  0  0  0  0  2  0  0  0  0  0  0
    2.8681   -0.0762   -0.6469 N   0  0  0  0  0  0  0  0  0  0  0  0
   -1.3221    1.0091    0.0722 C   0  0  0  0  0  3  0  0  0  0  0  0
   -1.7192    2.1773    0.7314 C   0  0  0  0  0  0  0  0  0  0  0  0
   -0.9594    2.8973    1.0558 H   0  0  0  0  0  0  0  0  0  0  0  0
   -3.0696    2.4686    1.0332 C   0  0  0  0  0  0  0  0  0  0  0  0
   -3.3146    3.3989    1.5681 H   0  0  0  0  0  0  0  0  0  0  0  0
   -4.0625    1.5772    0.6767 C   0  0  0  0  0  0  0  0  0  0  0  0
   -5.1180    1.7655    0.9250 H   0  0  0  0  0  0  0  0  0  0  0  0
   -3.7277    0.3927   -0.0361 C   0  0  0  0  0  0  0  0  0  0  0  0
   -4.7759   -0.5007   -0.4036 C   0  0  0  0  0  0  0  0  0  0  0  0
   -5.8019   -0.2429   -0.0970 H   0  0  0  0  0  0  0  0  0  0  0  0
   -4.5305   -1.6562   -1.1268 C   0  0  0  0  0  0  0  0  0  0  0  0
   -5.3488   -2.3378   -1.4007 H   0  0  0  0  0  0  0  0  0  0  0  0
   -3.2102   -1.9310   -1.5252 C   0  0  0  0  0  0  0  0  0  0  0  0
   -3.0026   -2.8257   -2.1328 H   0  0  0  0  0  0  0  0  0  0  0  0
   -2.1345   -1.0937   -1.1825 C   0  0  0  0  0  0  0  0  0  0  0  0
   -2.3455    0.1004   -0.3851 C   0  0  0  0  0  0  0  0  0  0  0  0
   -0.8671   -1.5138   -1.7464 C   0  0  0  0  0  3  0  0  0  0  0  0
   -0.9031   -2.4227   -2.3840 H   0  0  0  0  0  0  0  0  0  0  0  0
    1.4755   -1.4300   -2.2188 C   0  0  0  0  0  0  0  0  0  0  0  0
    1.7142   -0.7751   -3.0868 H   0  0  0  0  0  0  0  0  0  0  0  0
    1.3270   -2.4577   -2.6173 H   0  0  0  0  0  0  0  0  0  0  0  0
    2.6233   -1.4280   -1.2136 C   0  0  0  0  0  0  0  0  0  0  0  0
    2.3475   -2.0861   -0.3644 H   0  0  0  0  0  0  0  0  0  0  0  0
    3.5533   -1.8208   -1.6874 H   0  0  0  0  0  0  0  0  0  0  0  0
    3.7175   -0.2042    0.5546 C   0  0  0  0  0  0  0  0  0  0  0  0
    4.6775   -0.7082    0.2988 H   0  0  0  0  0  0  0  0  0  0  0  0
    3.1716   -0.7817    1.3261 H   0  0  0  0  0  0  0  0  0  0  0  0
    3.9435    0.8006    0.9557 H   0  0  0  0  0  0  0  0  0  0  0  0
    3.5473    0.7946   -1.6201 C   0  0  0  0  0  0  0  0  0  0  0  0
    4.5565    0.3931   -1.8700 H   0  0  0  0  0  0  0  0  0  0  0  0
    3.6630    1.8059   -1.1885 H   0  0  0  0  0  0  0  0  0  0  0  0
    2.9572    0.8860   -2.5487 H   0  0  0  0  0  0  0  0  0  0  0  0
  2 27  1  0  0  0  0
  3  4  1  0  0  0  0
  4  6  2  0  0  0  0
  4  5  1  0  0  0  0
  6  7  1  0  0  0  0
  8  9  1  0  0  0  0
  8  6  1  0  0  0  0
 10  8  2  0  0  0  0
 11 12  1  0  0  0  0
 11 10  1  0  0  0  0
 13 11  2  0  0  0  0
 14 13  1  0  0  0  0
 15 17  2  0  0  0  0
 15 13  1  0  0  0  0
 16 15  1  0  0  0  0
 17 18  1  0  0  0  0
 18 10  1  0  0  0  0
 18  3  2  0  0  0  0
 19  1  1  0  0  0  0
 19 17  1  0  0  0  0
 20 19  1  0  0  0  0
 21  1  1  0  0  0  0
 21 24  1  0  0  0  0
 22 21  1  0  0  0  0
 23 21  1  0  0  0  0
 24  2  1  0  0  0  0
 24 25  1  0  0  0  0
 26 24  1  0  0  0  0
 27 30  1  0  0  0  0
 27 29  1  0  0  0  0
 28 27  1  0  0  0  0
 31 33  1  0  0  0  0
 31  2  1  0  0  0  0
 32 31  1  0  0  0  0
 34 31  1  0  0  0  0
M  END
