1,2,3
 OpenBabel05122313063D

 40 42  0  0  1  0  0  0  0  0999 V2000
   -1.2629   -0.1224   -0.0426 C   0  0  0  0  0  3  0  0  0  0  0  0
    0.6379    1.7553    0.4645 N   0  0  0  0  0  0  0  0  0  0  0  0
    2.8561   -0.4024    0.0384 N   0  0  0  0  0  2  0  0  0  0  0  0
   -2.2658   -1.0749    0.0853 C   0  0  0  0  0  0  0  0  0  0  0  0
   -1.9954   -2.1310    0.2363 H   0  0  0  0  0  0  0  0  0  0  0  0
   -3.6454   -0.7140    0.0047 C   0  0  0  0  0  0  0  0  0  0  0  0
   -4.6866   -1.6813    0.1316 C   0  0  0  0  0  0  0  0  0  0  0  0
   -4.4064   -2.7342    0.2914 H   0  0  0  0  0  0  0  0  0  0  0  0
   -6.0213   -1.3100    0.0551 C   0  0  0  0  0  0  0  0  0  0  0  0
   -6.8112   -2.0704    0.1544 H   0  0  0  0  0  0  0  0  0  0  0  0
   -6.3768    0.0506   -0.1522 C   0  0  0  0  0  0  0  0  0  0  0  0
   -7.4385    0.3350   -0.2116 H   0  0  0  0  0  0  0  0  0  0  0  0
   -5.3891    1.0169   -0.2808 C   0  0  0  0  0  0  0  0  0  0  0  0
   -5.6595    2.0727   -0.4431 H   0  0  0  0  0  0  0  0  0  0  0  0
   -4.0093    0.6673   -0.2083 C   0  0  0  0  0  0  0  0  0  0  0  0
   -2.9686    1.6337   -0.3323 C   0  0  0  0  0  0  0  0  0  0  0  0
   -3.2419    2.6912   -0.4867 H   0  0  0  0  0  0  0  0  0  0  0  0
   -1.6371    1.2508   -0.2608 C   0  0  0  0  0  0  0  0  0  0  0  0
   -0.4921    2.2163   -0.4043 C   0  0  0  0  0  0  0  0  0  0  0  0
   -0.1160    2.2178   -1.4495 H   0  0  0  0  0  0  0  0  0  0  0  0
   -0.7702    3.2648   -0.1434 H   0  0  0  0  0  0  0  0  0  0  0  0
    1.8993    2.4695    0.1379 C   0  0  0  0  0  0  0  0  0  0  0  0
    2.5172    2.5058    1.0568 H   0  0  0  0  0  0  0  0  0  0  0  0
    1.6554    3.5235   -0.1261 H   0  0  0  0  0  0  0  0  0  0  0  0
    2.7164    1.8174   -0.9871 C   0  0  0  0  0  0  0  0  0  0  0  0
    2.0336    1.4924   -1.8025 H   0  0  0  0  0  0  0  0  0  0  0  0
    3.3987    2.5769   -1.4172 H   0  0  0  0  0  0  0  0  0  0  0  0
    3.5302    0.6358   -0.5150 C   0  0  1  0  0  3  0  0  0  0  0  0
    4.9313    0.6109   -0.6232 C   0  0  0  0  0  0  0  0  0  0  0  0
    5.4544    1.4624   -1.0828 H   0  0  0  0  0  0  0  0  0  0  0  0
    5.6422   -0.5012   -0.1516 C   0  0  0  0  0  0  0  0  0  0  0  0
    6.7394   -0.5348   -0.2298 H   0  0  0  0  0  0  0  0  0  0  0  0
    4.9295   -1.5672    0.4134 C   0  0  0  0  0  0  0  0  0  0  0  0
    5.4406   -2.4643    0.7910 H   0  0  0  0  0  0  0  0  0  0  0  0
    3.5346   -1.4819    0.4835 C   0  0  0  0  0  0  0  0  0  0  0  0
    2.9042   -2.3026    0.8624 H   0  0  0  0  0  0  0  0  0  0  0  0
    0.2923    1.9682    1.8901 C   0  0  0  0  0  0  0  0  0  0  0  0
    0.2230    3.0575    2.1172 H   0  0  0  0  0  0  0  0  0  0  0  0
    1.0667    1.5047    2.5286 H   0  0  0  0  0  0  0  0  0  0  0  0
   -0.6801    1.4898    2.1029 H   0  0  0  0  0  0  0  0  0  0  0  0
  1  4  1  0  0  0  0
  2 37  1  0  0  0  0
  3 35  1  0  0  0  0
  4  5  1  0  0  0  0
  6  4  2  0  0  0  0
  6  7  1  0  0  0  0
  7  8  1  0  0  0  0
  9  7  2  0  0  0  0
  9 10  1  0  0  0  0
 11  9  1  0  0  0  0
 12 11  1  0  0  0  0
 13 15  1  0  0  0  0
 13 11  2  0  0  0  0
 14 13  1  0  0  0  0
 15  6  1  0  0  0  0
 16 18  1  0  0  0  0
 16 15  2  0  0  0  0
 17 16  1  0  0  0  0
 18  1  2  0  0  0  0
 19 18  1  0  0  0  0
 19 21  1  0  0  0  0
 19  2  1  0  0  0  0
 20 19  1  0  0  0  0
 22  2  1  0  0  0  0
 22 23  1  0  0  0  0
 24 22  1  0  0  0  0
 25 22  1  0  0  0  0
 26 25  1  0  0  0  0
 27 25  1  0  0  0  0
 28 25  1  1  0  0  0
 28  3  1  0  0  0  0
 29 28  1  0  0  0  0
 29 31  2  0  0  0  0
 30 29  1  0  0  0  0
 31 33  1  0  0  0  0
 32 31  1  0  0  0  0
 33 35  2  0  0  0  0
 33 34  1  0  0  0  0
 35 36  1  0  0  0  0
 37 40  1  0  0  0  0
 37 38  1  0  0  0  0
 37 39  1  0  0  0  0
M  END
