1,4,21
 OpenBabel05122313063D

 29 31  0  0  0  0  0  0  0  0999 V2000
    0.1396    2.0127   -0.1808 N   0  0  0  0  0  2  0  0  0  0  0  0
   -0.8196    2.7694    0.4059 N   0  0  0  0  0  0  0  0  0  0  0  0
    0.4086    4.1570   -0.8022 N   0  0  0  0  0  0  0  0  0  0  0  0
    0.1396   -2.0127    0.1805 N   0  0  0  0  0  2  0  0  0  0  0  0
   -0.8195   -2.7694   -0.4063 N   0  0  0  0  0  0  0  0  0  0  0  0
    0.4088   -4.1571    0.8016 N   0  0  0  0  0  0  0  0  0  0  0  0
    0.8641    2.8875   -0.9019 C   0  0  0  0  0  3  0  0  0  0  0  0
    1.7380    2.5567   -1.4757 H   0  0  0  0  0  0  0  0  0  0  0  0
   -0.6365    4.0556    0.0171 C   0  0  0  0  0  0  0  0  0  0  0  0
   -1.2836    4.8714    0.3639 H   0  0  0  0  0  0  0  0  0  0  0  0
   -1.8112    2.1676    1.2925 C   0  0  0  0  0  0  0  0  0  0  0  0
   -2.4871    2.9821    1.6144 H   0  0  0  0  0  0  0  0  0  0  0  0
   -1.2724    1.7891    2.1879 H   0  0  0  0  0  0  0  0  0  0  0  0
    0.8643   -2.8876    0.9015 C   0  0  0  0  0  3  0  0  0  0  0  0
    1.7381   -2.5567    1.4753 H   0  0  0  0  0  0  0  0  0  0  0  0
   -0.6363   -4.0556   -0.0175 C   0  0  0  0  0  0  0  0  0  0  0  0
   -1.2834   -4.8714   -0.3645 H   0  0  0  0  0  0  0  0  0  0  0  0
   -1.8113   -2.1675   -1.2925 C   0  0  0  0  0  0  0  0  0  0  0  0
   -2.4871   -2.9820   -1.6145 H   0  0  0  0  0  0  0  0  0  0  0  0
   -1.2725   -1.7888   -2.1880 H   0  0  0  0  0  0  0  0  0  0  0  0
   -1.8399   -0.0000    0.0000 C   0  0  0  0  0  3  0  0  0  0  0  0
   -2.5671    1.0465    0.6109 C   0  0  0  0  0  0  0  0  0  0  0  0
   -3.9747    1.0484    0.6045 C   0  0  0  0  0  0  0  0  0  0  0  0
   -4.5227    1.8765    1.0832 H   0  0  0  0  0  0  0  0  0  0  0  0
   -4.6822   -0.0001    0.0003 C   0  0  0  0  0  0  0  0  0  0  0  0
   -5.7820   -0.0002    0.0005 H   0  0  0  0  0  0  0  0  0  0  0  0
   -3.9747   -1.0486   -0.6040 C   0  0  0  0  0  0  0  0  0  0  0  0
   -4.5227   -1.8767   -1.0826 H   0  0  0  0  0  0  0  0  0  0  0  0
   -2.5671   -1.0465   -0.6107 C   0  0  0  0  0  0  0  0  0  0  0  0
  1  2  1  0  0  0  0
  2 11  1  0  0  0  0
  3  9  2  0  0  0  0
  4 14  1  0  0  0  0
  5 16  1  0  0  0  0
  5  4  1  0  0  0  0
  6 14  1  0  0  0  0
  7  3  1  0  0  0  0
  7  1  1  0  0  0  0
  8  7  1  0  0  0  0
  9 10  1  0  0  0  0
  9  2  1  0  0  0  0
 11 12  1  0  0  0  0
 11 13  1  0  0  0  0
 14 15  1  0  0  0  0
 16  6  2  0  0  0  0
 17 16  1  0  0  0  0
 18 29  1  0  0  0  0
 18  5  1  0  0  0  0
 19 18  1  0  0  0  0
 20 18  1  0  0  0  0
 21 22  1  0  0  0  0
 22 11  1  0  0  0  0
 23 22  2  0  0  0  0
 23 24  1  0  0  0  0
 25 26  1  0  0  0  0
 25 23  1  0  0  0  0
 27 25  2  0  0  0  0
 28 27  1  0  0  0  0
 29 27  1  0  0  0  0
 29 21  2  0  0  0  0
M  END
