8,9,15
 OpenBabel05122313063D

 43 45  0  0  1  0  0  0  0  0999 V2000
    0.1543    0.9544   -2.1176 S   0  0  0  0  0  0  0  0  0  0  0  0
    1.5679    3.7420   -2.2478 F   0  0  0  0  0  0  0  0  0  0  0  0
    3.1304    4.8243   -0.2864 F   0  0  0  0  0  0  0  0  0  0  0  0
    2.6572    0.9154    2.3386 F   0  0  0  0  0  0  0  0  0  0  0  0
    3.6470    3.4123    1.9888 F   0  0  0  0  0  0  0  0  0  0  0  0
   -0.8148    1.9758   -2.5750 O   0  0  0  0  0  0  0  0  0  0  0  0
    0.9163    0.1767   -3.1260 O   0  0  0  0  0  0  0  0  0  0  0  0
   -0.5706   -0.2169    1.6229 N   0  0  0  0  0  0  0  0  0  0  0  0
   -0.5766   -0.1255   -1.0516 N   0  0  0  0  0  2  0  0  0  0  0  0
    1.3253    1.7286   -0.9671 C   0  0  0  0  0  0  0  0  0  0  0  0
    1.8229    3.0242   -1.1494 C   0  0  0  0  0  0  0  0  0  0  0  0
    2.6283    3.5911   -0.1446 C   0  0  0  0  0  0  0  0  0  0  0  0
    2.9042    2.8562    1.0225 C   0  0  0  0  0  0  0  0  0  0  0  0
    2.3887    1.5550    1.1697 C   0  0  0  0  0  0  0  0  0  0  0  0
    1.6146    0.9478    0.1752 C   0  0  0  0  0  3  0  0  0  0  0  0
   -1.9148   -0.2320    0.9781 C   0  0  2  0  0  0  0  0  0  0  0  0
   -1.7619    0.4549   -0.3998 C   0  0  2  0  0  0  0  0  0  0  0  0
   -2.9937    0.3826    1.8428 C   0  0  0  0  0  0  0  0  0  0  0  0
   -2.8470    1.6838    2.3662 C   0  0  0  0  0  0  0  0  0  0  0  0
   -3.8643    2.2615    3.1387 C   0  0  0  0  0  0  0  0  0  0  0  0
   -5.0477    1.5479    3.3899 C   0  0  0  0  0  0  0  0  0  0  0  0
   -5.2063    0.2557    2.8663 C   0  0  0  0  0  0  0  0  0  0  0  0
   -4.1837   -0.3225    2.0998 C   0  0  0  0  0  0  0  0  0  0  0  0
   -3.0322    0.2615   -1.2153 C   0  0  0  0  0  0  0  0  0  0  0  0
   -4.0830    1.1926   -1.1367 C   0  0  0  0  0  0  0  0  0  0  0  0
   -5.2833    0.9705   -1.8270 C   0  0  0  0  0  0  0  0  0  0  0  0
   -5.4448   -0.1871   -2.6050 C   0  0  0  0  0  0  0  0  0  0  0  0
   -4.3954   -1.1162   -2.6941 C   0  0  0  0  0  0  0  0  0  0  0  0
   -3.1954   -0.8919   -2.0038 C   0  0  0  0  0  0  0  0  0  0  0  0
   -0.5883   -0.7536    2.5009 H   0  0  0  0  0  0  0  0  0  0  0  0
   -0.3104    0.7483    1.8801 H   0  0  0  0  0  0  0  0  0  0  0  0
   -2.1517   -1.2996    0.7941 H   0  0  0  0  0  0  0  0  0  0  0  0
   -1.6399    1.5496   -0.2113 H   0  0  0  0  0  0  0  0  0  0  0  0
   -1.9352    2.2673    2.1567 H   0  0  0  0  0  0  0  0  0  0  0  0
   -3.7362    3.2782    3.5397 H   0  0  0  0  0  0  0  0  0  0  0  0
   -5.8489    2.0030    3.9915 H   0  0  0  0  0  0  0  0  0  0  0  0
   -6.1344   -0.3055    3.0522 H   0  0  0  0  0  0  0  0  0  0  0  0
   -4.3138   -1.3303    1.6753 H   0  0  0  0  0  0  0  0  0  0  0  0
   -3.9550    2.1039   -0.5323 H   0  0  0  0  0  0  0  0  0  0  0  0
   -6.0954    1.7109   -1.7638 H   0  0  0  0  0  0  0  0  0  0  0  0
   -6.3841   -0.3585   -3.1526 H   0  0  0  0  0  0  0  0  0  0  0  0
   -4.5090   -2.0174   -3.3163 H   0  0  0  0  0  0  0  0  0  0  0  0
   -2.3488   -1.5893   -2.0897 H   0  0  0  0  0  0  0  0  0  0  0  0
  1  9  1  0  0  0  0
  1 10  1  0  0  0  0
  2 11  1  0  0  0  0
  3 12  1  0  0  0  0
  6  1  2  0  0  0  0
  7  1  2  0  0  0  0
  8 31  1  0  0  0  0
  8 30  1  0  0  0  0
  9 17  1  0  0  0  0
 10 15  1  0  0  0  0
 11 10  2  0  0  0  0
 11 12  1  0  0  0  0
 12 13  2  0  0  0  0
 13 14  1  0  0  0  0
 13  5  1  0  0  0  0
 14  4  1  0  0  0  0
 15 14  2  0  0  0  0
 16 32  1  6  0  0  0
 16  8  1  0  0  0  0
 16 18  1  0  0  0  0
 17 33  1  1  0  0  0
 17 16  1  0  0  0  0
 18 23  2  0  0  0  0
 18 19  1  0  0  0  0
 19 20  2  0  0  0  0
 20 21  1  0  0  0  0
 20 35  1  0  0  0  0
 21 36  1  0  0  0  0
 22 37  1  0  0  0  0
 22 21  2  0  0  0  0
 23 22  1  0  0  0  0
 24 25  1  0  0  0  0
 24 17  1  0  0  0  0
 25 39  1  0  0  0  0
 26 40  1  0  0  0  0
 26 25  2  0  0  0  0
 27 26  1  0  0  0  0
 28 27  2  0  0  0  0
 28 29  1  0  0  0  0
 29 24  2  0  0  0  0
 34 19  1  0  0  0  0
 38 23  1  0  0  0  0
 41 27  1  0  0  0  0
 42 28  1  0  0  0  0
 43 29  1  0  0  0  0
M  END
