1,8,15
 OpenBabel05122313063D

 31 33  0  0  1  0  0  0  0  0999 V2000
    1.7301   -1.3219   -0.0003 N   0  0  0  0  0  2  0  0  0  0  0  0
    2.3040   -2.5383   -0.0004 C   0  0  0  0  0  0  0  0  0  0  0  0
    3.6978   -2.6941   -0.0013 C   0  0  0  0  0  0  0  0  0  0  0  0
    4.5163   -1.5537   -0.0023 C   0  0  0  0  0  0  0  0  0  0  0  0
    3.9149   -0.2886   -0.0022 C   0  0  0  0  0  0  0  0  0  0  0  0
    2.5143   -0.2132   -0.0012 C   0  0  0  0  0  0  0  0  0  0  0  0
    1.7891    1.0759   -0.0007 C   0  0  0  0  0  0  0  0  0  0  0  0
    0.4282    0.9842   -0.0001 N   0  0  0  0  0  2  0  0  0  0  0  0
   -0.2427    2.1748    0.0013 C   0  0  2  0  0  3  0  0  0  0  0  0
    0.3762    3.3728    0.0017 N   0  0  0  0  0  0  0  0  0  0  0  0
    1.7165    3.3418    0.0004 C   0  0  0  0  0  0  0  0  0  0  0  0
    2.4780    2.2111   -0.0006 N   0  0  0  0  0  2  0  0  0  0  0  0
    2.3823    4.5203   -0.0009 N   0  0  0  0  0  0  0  0  0  0  0  0
   -1.5893    2.1909    0.0027 N   0  0  0  0  0  0  0  0  0  0  0  0
   -2.2513   -0.2280   -0.0005 C   0  0  0  0  0  2  0  0  0  0  0  0
   -3.3575   -1.1101   -0.0032 C   0  0  0  0  0  3  0  0  0  0  0  0
   -4.6850   -0.6579   -0.0042 C   0  0  0  0  0  0  0  0  0  0  0  0
   -4.9603    0.7179   -0.0024 C   0  0  0  0  0  0  0  0  0  0  0  0
   -3.8957    1.6201   -0.0000 C   0  0  0  0  0  0  0  0  0  0  0  0
   -2.5567    1.1602    0.0008 C   0  0  0  0  0  0  0  0  0  0  0  0
    1.5906   -3.3810    0.0007 H   0  0  0  0  0  0  0  0  0  0  0  0
    4.1290   -3.7055   -0.0013 H   0  0  0  0  0  0  0  0  0  0  0  0
    5.6123   -1.6495   -0.0031 H   0  0  0  0  0  0  0  0  0  0  0  0
    4.4884    0.6482   -0.0028 H   0  0  0  0  0  0  0  0  0  0  0  0
    1.8584    5.3923    0.0057 H   0  0  0  0  0  0  0  0  0  0  0  0
    3.3993    4.5167    0.0043 H   0  0  0  0  0  0  0  0  0  0  0  0
   -1.9565    3.1459    0.0035 H   0  0  0  0  0  0  0  0  0  0  0  0
   -3.1544   -2.1896   -0.0044 H   0  0  0  0  0  0  0  0  0  0  0  0
   -5.5077   -1.3894   -0.0063 H   0  0  0  0  0  0  0  0  0  0  0  0
   -5.9958    1.0899   -0.0031 H   0  0  0  0  0  0  0  0  0  0  0  0
   -4.0901    2.7060    0.0012 H   0  0  0  0  0  0  0  0  0  0  0  0
  2  1  1  0  0  0  0
  2 21  1  0  0  0  0
  3 22  1  0  0  0  0
  3  2  2  0  0  0  0
  4  5  2  0  0  0  0
  4  3  1  0  0  0  0
  5  6  1  0  0  0  0
  6  7  2  0  0  0  0
  6  1  1  0  0  0  0
  7 12  1  0  0  0  0
  7  8  1  0  0  0  0
  8  9  1  0  0  0  0
  9 10  1  0  0  0  0
  9 14  1  1  0  0  0
 11 10  2  0  0  0  0
 12 11  1  0  0  0  0
 13 11  1  0  0  0  0
 13 26  1  0  0  0  0
 13 25  1  0  0  0  0
 14 27  1  0  0  0  0
 15 20  1  0  0  0  0
 16 15  1  0  0  0  0
 17 16  1  0  0  0  0
 17 18  2  0  0  0  0
 18 19  1  0  0  0  0
 19 20  2  0  0  0  0
 19 31  1  0  0  0  0
 20 14  1  0  0  0  0
 23  4  1  0  0  0  0
 24  5  1  0  0  0  0
 28 16  1  0  0  0  0
 29 17  1  0  0  0  0
 30 18  1  0  0  0  0
M  END
