2,3,30
 OpenBabel05122313063D

 49 52  0  0  1  0  0  0  0  0999 V2000
    1.8455   -0.5940   -0.2286 N   0  0  0  0  0  0  0  0  0  0  0  0
    0.5913   -0.4662   -0.7039 N   0  0  0  0  0  2  0  0  0  0  0  0
   -1.7564    0.3119   -1.1712 N   0  0  0  0  0  2  0  0  0  0  0  0
    2.6568    0.3945   -0.7647 C   0  0  2  0  0  3  0  0  0  0  0  0
    1.8485    1.1807   -1.5972 C   0  0  0  0  0  0  0  0  0  0  0  0
    2.1798    2.0332   -2.1973 H   0  0  0  0  0  0  0  0  0  0  0  0
    0.5500    0.6258   -1.5067 C   0  0  0  0  0  0  0  0  0  0  0  0
   -0.7969    1.0409   -1.8385 C   0  0  2  0  0  3  0  0  0  0  0  0
   -1.1416    2.1321   -2.6532 C   0  0  0  0  0  0  0  0  0  0  0  0
   -0.3489    2.6824   -3.1787 H   0  0  0  0  0  0  0  0  0  0  0  0
   -2.4830    2.5076   -2.7611 C   0  0  0  0  0  0  0  0  0  0  0  0
   -2.7734    3.3635   -3.3874 H   0  0  0  0  0  0  0  0  0  0  0  0
   -3.4516    1.7813   -2.0469 C   0  0  0  0  0  0  0  0  0  0  0  0
   -4.5148    2.0548   -2.0827 H   0  0  0  0  0  0  0  0  0  0  0  0
   -3.0511    0.6945   -1.2684 C   0  0  0  0  0  0  0  0  0  0  0  0
   -3.7727    0.1095   -0.6826 H   0  0  0  0  0  0  0  0  0  0  0  0
    4.0898    0.5059   -0.4681 C   0  0  0  0  0  0  0  0  0  0  0  0
    4.9158   -0.6393   -0.3815 C   0  0  0  0  0  0  0  0  0  0  0  0
    4.4895   -1.6379   -0.5619 H   0  0  0  0  0  0  0  0  0  0  0  0
    6.2841   -0.5050   -0.1124 C   0  0  0  0  0  0  0  0  0  0  0  0
    6.9189   -1.4016   -0.0550 H   0  0  0  0  0  0  0  0  0  0  0  0
    6.8472    0.7690    0.0649 C   0  0  0  0  0  0  0  0  0  0  0  0
    7.9223    0.8716    0.2739 H   0  0  0  0  0  0  0  0  0  0  0  0
    6.0368    1.9120   -0.0312 C   0  0  0  0  0  0  0  0  0  0  0  0
    6.4744    2.9116    0.1076 H   0  0  0  0  0  0  0  0  0  0  0  0
    4.6671    1.7844   -0.2941 C   0  0  0  0  0  0  0  0  0  0  0  0
    4.0291    2.6793   -0.3474 H   0  0  0  0  0  0  0  0  0  0  0  0
   -1.6144   -0.3464    1.8228 C   0  0  0  0  0  3  0  0  0  0  0  0
   -2.3469   -0.9955    2.3367 H   0  0  0  0  0  0  0  0  0  0  0  0
   -0.2952   -0.8097    1.6822 C   0  0  0  0  0  2  0  0  0  0  0  0
    0.9939   -0.8153    2.0548 C   0  0  1  0  0  3  0  0  0  0  0  0
    2.0118   -1.3268    1.0384 C   0  0  0  0  0  0  0  0  0  0  0  0
    3.0500   -1.1547    1.3738 H   0  0  0  0  0  0  0  0  0  0  0  0
    1.8927   -2.4116    0.8405 H   0  0  0  0  0  0  0  0  0  0  0  0
    1.5035   -0.2743    3.3650 C   0  0  0  0  0  0  0  0  0  0  0  0
    2.2175    0.5610    3.1963 H   0  0  0  0  0  0  0  0  0  0  0  0
    2.0526   -1.0518    3.9382 H   0  0  0  0  0  0  0  0  0  0  0  0
    0.6757    0.0996    3.9955 H   0  0  0  0  0  0  0  0  0  0  0  0
   -2.0138    1.0739    1.7391 C   0  0  0  0  0  0  0  0  0  0  0  0
   -3.3619    1.4294    1.9705 C   0  0  0  0  0  0  0  0  0  0  0  0
   -4.0841    0.6463    2.2522 H   0  0  0  0  0  0  0  0  0  0  0  0
   -3.7847    2.7611    1.8525 C   0  0  0  0  0  0  0  0  0  0  0  0
   -4.8366    3.0204    2.0459 H   0  0  0  0  0  0  0  0  0  0  0  0
   -2.8679    3.7610    1.4930 C   0  0  0  0  0  0  0  0  0  0  0  0
   -3.1971    4.8065    1.4001 H   0  0  0  0  0  0  0  0  0  0  0  0
   -1.5218    3.4206    1.2669 C   0  0  0  0  0  0  0  0  0  0  0  0
   -0.7957    4.2031    0.9985 H   0  0  0  0  0  0  0  0  0  0  0  0
   -1.0965    2.0936    1.3928 C   0  0  0  0  0  0  0  0  0  0  0  0
   -0.0407    1.8324    1.2228 H   0  0  0  0  0  0  0  0  0  0  0  0
  1 32  1  0  0  0  0
  2  1  1  0  0  0  0
  4 17  1  6  0  0  0
  4  1  1  0  0  0  0
  5  7  2  0  0  0  0
  5  4  1  0  0  0  0
  6  5  1  0  0  0  0
  7  2  1  0  0  0  0
  8  7  1  1  0  0  0
  8  3  1  0  0  0  0
  9  8  1  0  0  0  0
 10  9  1  0  0  0  0
 11  9  2  0  0  0  0
 11 13  1  0  0  0  0
 12 11  1  0  0  0  0
 13 15  2  0  0  0  0
 14 13  1  0  0  0  0
 15  3  1  0  0  0  0
 15 16  1  0  0  0  0
 17 18  2  0  0  0  0
 17 26  1  0  0  0  0
 18 20  1  0  0  0  0
 19 18  1  0  0  0  0
 20 21  1  0  0  0  0
 20 22  2  0  0  0  0
 22 23  1  0  0  0  0
 24 22  1  0  0  0  0
 24 25  1  0  0  0  0
 26 24  2  0  0  0  0
 27 26  1  0  0  0  0
 28 29  1  0  0  0  0
 30 28  1  0  0  0  0
 31 30  1  6  0  0  0
 31 35  1  0  0  0  0
 32 33  1  0  0  0  0
 32 31  1  0  0  0  0
 34 32  1  0  0  0  0
 35 37  1  0  0  0  0
 35 38  1  0  0  0  0
 36 35  1  0  0  0  0
 39 28  1  0  0  0  0
 39 40  1  0  0  0  0
 40 41  1  0  0  0  0
 42 40  2  0  0  0  0
 42 43  1  0  0  0  0
 44 42  1  0  0  0  0
 45 44  1  0  0  0  0
 46 48  1  0  0  0  0
 46 44  2  0  0  0  0
 47 46  1  0  0  0  0
 48 39  2  0  0  0  0
 49 48  1  0  0  0  0
M  END
