1,2
 OpenBabel05122313063D

 37 36  0  0  0  0  0  0  0  0999 V2000
   -0.6934   -2.0182   -0.6516 Si  0  0  0  0  0  3  0  0  0  0  0  0
   -1.6152    0.6049    0.6368 Si  0  0  2  0  0  3  0  0  0  0  0  0
   -2.1162    2.0120   -1.2485 Si  0  0  0  0  0  0  0  0  0  0  0  0
   -0.9566   -2.1567   -2.5605 C   0  0  0  0  0  0  0  0  0  0  0  0
   -0.0333   -3.7799   -0.1918 C   0  0  0  0  0  0  0  0  0  0  0  0
   -2.4970   -1.9589   -0.0184 C   0  0  0  0  0  0  0  0  0  0  0  0
   -3.3603   -3.1874   -0.1834 C   0  0  0  0  0  0  0  0  0  0  0  0
   -2.9167   -0.7910    0.5459 C   0  0  0  0  0  0  0  0  0  0  0  0
   -4.3015   -0.5516    1.0975 C   0  0  0  0  0  0  0  0  0  0  0  0
   -2.1766    1.6282    2.1680 C   0  0  0  0  0  0  0  0  0  0  0  0
   -3.9089    1.6686   -1.7955 C   0  0  0  0  0  0  0  0  0  0  0  0
   -1.0255    1.7489   -2.7909 C   0  0  0  0  0  0  0  0  0  0  0  0
   -2.0136    3.8708   -0.8146 C   0  0  0  0  0  0  0  0  0  0  0  0
   -1.6601   -2.9940   -2.7563 H   0  0  0  0  0  0  0  0  0  0  0  0
   -1.4136   -1.2377   -2.9770 H   0  0  0  0  0  0  0  0  0  0  0  0
   -0.0313   -2.3732   -3.1317 H   0  0  0  0  0  0  0  0  0  0  0  0
    0.3322   -4.3195   -1.0884 H   0  0  0  0  0  0  0  0  0  0  0  0
    0.7847   -3.7694    0.5530 H   0  0  0  0  0  0  0  0  0  0  0  0
   -0.8581   -4.3873    0.2333 H   0  0  0  0  0  0  0  0  0  0  0  0
   -3.1319   -3.7338   -1.1228 H   0  0  0  0  0  0  0  0  0  0  0  0
   -3.1780   -3.9103    0.6435 H   0  0  0  0  0  0  0  0  0  0  0  0
   -4.4477   -2.9654   -0.1805 H   0  0  0  0  0  0  0  0  0  0  0  0
   -4.2854   -0.5460    2.2099 H   0  0  0  0  0  0  0  0  0  0  0  0
   -4.7029    0.4380    0.7944 H   0  0  0  0  0  0  0  0  0  0  0  0
   -5.0365   -1.3221    0.7865 H   0  0  0  0  0  0  0  0  0  0  0  0
   -1.5431    2.5052    2.3884 H   0  0  0  0  0  0  0  0  0  0  0  0
   -3.2107    1.9937    1.9983 H   0  0  0  0  0  0  0  0  0  0  0  0
   -2.2030    0.9852    3.0722 H   0  0  0  0  0  0  0  0  0  0  0  0
   -4.0547    0.5869   -1.9914 H   0  0  0  0  0  0  0  0  0  0  0  0
   -4.6382    1.9736   -1.0178 H   0  0  0  0  0  0  0  0  0  0  0  0
   -4.1451    2.2300   -2.7248 H   0  0  0  0  0  0  0  0  0  0  0  0
   -1.1633    0.7321   -3.2068 H   0  0  0  0  0  0  0  0  0  0  0  0
   -1.2988    2.4799   -3.5812 H   0  0  0  0  0  0  0  0  0  0  0  0
    0.0515    1.8724   -2.5658 H   0  0  0  0  0  0  0  0  0  0  0  0
   -2.4802    4.4716   -1.6242 H   0  0  0  0  0  0  0  0  0  0  0  0
   -2.5497    4.0993    0.1291 H   0  0  0  0  0  0  0  0  0  0  0  0
   -0.9679    4.2228   -0.7044 H   0  0  0  0  0  0  0  0  0  0  0  0
  1  5  1  0  0  0  0
  1  6  1  0  0  0  0
  2  8  1  6  0  0  0
  2 10  1  0  0  0  0
  3 13  1  0  0  0  0
  3  2  1  0  0  0  0
  4  1  1  0  0  0  0
  5 19  1  0  0  0  0
  5 18  1  0  0  0  0
  6  8  2  0  0  0  0
  7 22  1  0  0  0  0
  7  6  1  0  0  0  0
  7 21  1  0  0  0  0
  8  9  1  0  0  0  0
  9 23  1  0  0  0  0
 10 26  1  0  0  0  0
 10 28  1  0  0  0  0
 11  3  1  0  0  0  0
 11 30  1  0  0  0  0
 12 34  1  0  0  0  0
 12  3  1  0  0  0  0
 13 37  1  0  0  0  0
 13 36  1  0  0  0  0
 14  4  1  0  0  0  0
 15  4  1  0  0  0  0
 16  4  1  0  0  0  0
 17  5  1  0  0  0  0
 20  7  1  0  0  0  0
 24  9  1  0  0  0  0
 25  9  1  0  0  0  0
 27 10  1  0  0  0  0
 29 11  1  0  0  0  0
 31 11  1  0  0  0  0
 32 12  1  0  0  0  0
 33 12  1  0  0  0  0
 35 13  1  0  0  0  0
M  END
