1,2
 OpenBabel05122313063D

 47 50  0  0  0  0  0  0  0  0999 V2000
   -1.2797    0.8381    0.8264 Si  0  0  0  0  0  3  0  0  0  0  0  0
    1.2921    0.7439    0.8611 Si  0  0  0  0  0  3  0  0  0  0  0  0
    0.0150    1.4145    1.8205 O   0  0  0  0  0  0  0  0  0  0  0  0
   -2.4373   -0.2457    1.8633 C   0  0  0  0  0  0  0  0  0  0  0  0
   -1.9213   -1.0272    2.9213 C   0  0  0  0  0  0  0  0  0  0  0  0
   -0.8681   -0.9001    3.2196 H   0  0  0  0  0  0  0  0  0  0  0  0
   -2.7308   -1.9560    3.5940 C   0  0  0  0  0  0  0  0  0  0  0  0
   -2.3117   -2.5542    4.4185 H   0  0  0  0  0  0  0  0  0  0  0  0
   -4.0750   -2.1224    3.2197 C   0  0  0  0  0  0  0  0  0  0  0  0
   -4.7098   -2.8525    3.7454 H   0  0  0  0  0  0  0  0  0  0  0  0
   -4.6086   -1.3437    2.1788 C   0  0  0  0  0  0  0  0  0  0  0  0
   -5.6664   -1.4570    1.8928 H   0  0  0  0  0  0  0  0  0  0  0  0
   -3.7961   -0.4123    1.5117 C   0  0  0  0  0  0  0  0  0  0  0  0
   -4.2292    0.2057    0.7066 H   0  0  0  0  0  0  0  0  0  0  0  0
   -2.2350    2.3476    0.2030 C   0  0  0  0  0  0  0  0  0  0  0  0
   -2.9948    2.3225   -0.9866 C   0  0  0  0  0  0  0  0  0  0  0  0
   -3.0086    1.4065   -1.5993 H   0  0  0  0  0  0  0  0  0  0  0  0
   -3.7127    3.4517   -1.4126 C   0  0  0  0  0  0  0  0  0  0  0  0
   -4.2997    3.4140   -2.3439 H   0  0  0  0  0  0  0  0  0  0  0  0
   -3.6709    4.6343   -0.6566 C   0  0  0  0  0  0  0  0  0  0  0  0
   -4.2278    5.5234   -0.9908 H   0  0  0  0  0  0  0  0  0  0  0  0
   -2.9082    4.6819    0.5223 C   0  0  0  0  0  0  0  0  0  0  0  0
   -2.8670    5.6104    1.1134 H   0  0  0  0  0  0  0  0  0  0  0  0
   -2.1975    3.5486    0.9468 C   0  0  0  0  0  0  0  0  0  0  0  0
   -1.5939    3.5894    1.8682 H   0  0  0  0  0  0  0  0  0  0  0  0
    2.3436    2.1641    0.1919 C   0  0  0  0  0  0  0  0  0  0  0  0
    1.8581    3.4897    0.2344 C   0  0  0  0  0  0  0  0  0  0  0  0
    0.8895    3.6889    0.7194 H   0  0  0  0  0  0  0  0  0  0  0  0
    2.5882    4.5443   -0.3367 C   0  0  0  0  0  0  0  0  0  0  0  0
    2.1929    5.5714   -0.2932 H   0  0  0  0  0  0  0  0  0  0  0  0
    3.8189    4.2926   -0.9639 C   0  0  0  0  0  0  0  0  0  0  0  0
    4.3915    5.1196   -1.4119 H   0  0  0  0  0  0  0  0  0  0  0  0
    4.3176    2.9799   -1.0181 C   0  0  0  0  0  0  0  0  0  0  0  0
    5.2845    2.7771   -1.5053 H   0  0  0  0  0  0  0  0  0  0  0  0
    3.5836    1.9293   -0.4466 C   0  0  0  0  0  0  0  0  0  0  0  0
    3.9895    0.9040   -0.4909 H   0  0  0  0  0  0  0  0  0  0  0  0
    2.3706   -0.4007    1.9264 C   0  0  0  0  0  0  0  0  0  0  0  0
    3.6113   -0.0010    2.4693 C   0  0  0  0  0  0  0  0  0  0  0  0
    3.9816    1.0204    2.2845 H   0  0  0  0  0  0  0  0  0  0  0  0
    4.3831   -0.8857    3.2414 C   0  0  0  0  0  0  0  0  0  0  0  0
    5.3490   -0.5551    3.6549 H   0  0  0  0  0  0  0  0  0  0  0  0
    3.9231   -2.1885    3.4904 C   0  0  0  0  0  0  0  0  0  0  0  0
    4.5273   -2.8815    4.0964 H   0  0  0  0  0  0  0  0  0  0  0  0
    2.6878   -2.6041    2.9644 C   0  0  0  0  0  0  0  0  0  0  0  0
    2.3204   -3.6239    3.1606 H   0  0  0  0  0  0  0  0  0  0  0  0
    1.9262   -1.7186    2.1871 C   0  0  0  0  0  0  0  0  0  0  0  0
    0.9633   -2.0483    1.7590 H   0  0  0  0  0  0  0  0  0  0  0  0
  1  3  1  0  0  0  0
  1  4  1  0  0  0  0
  2  3  1  0  0  0  0
  2 37  1  0  0  0  0
  4  5  1  0  0  0  0
  5  6  1  0  0  0  0
  5  7  2  0  0  0  0
  7  8  1  0  0  0  0
  9  7  1  0  0  0  0
  9 10  1  0  0  0  0
 11  9  2  0  0  0  0
 12 11  1  0  0  0  0
 13  4  2  0  0  0  0
 13 11  1  0  0  0  0
 14 13  1  0  0  0  0
 15  1  1  0  0  0  0
 15 24  1  0  0  0  0
 16 15  2  0  0  0  0
 17 16  1  0  0  0  0
 18 16  1  0  0  0  0
 18 20  2  0  0  0  0
 19 18  1  0  0  0  0
 20 22  1  0  0  0  0
 21 20  1  0  0  0  0
 22 24  2  0  0  0  0
 22 23  1  0  0  0  0
 24 25  1  0  0  0  0
 26 27  1  0  0  0  0
 26  2  1  0  0  0  0
 27 28  1  0  0  0  0
 29 30  1  0  0  0  0
 29 27  2  0  0  0  0
 31 29  1  0  0  0  0
 32 31  1  0  0  0  0
 33 31  2  0  0  0  0
 33 35  1  0  0  0  0
 34 33  1  0  0  0  0
 35 26  2  0  0  0  0
 36 35  1  0  0  0  0
 37 46  2  0  0  0  0
 37 38  1  0  0  0  0
 38 40  2  0  0  0  0
 39 38  1  0  0  0  0
 40 42  1  0  0  0  0
 40 41  1  0  0  0  0
 42 43  1  0  0  0  0
 44 45  1  0  0  0  0
 44 42  2  0  0  0  0
 46 44  1  0  0  0  0
 47 46  1  0  0  0  0
M  END
