1,14,23
 OpenBabel05122313063D

 32 34  0  0  1  0  0  0  0  0999 V2000
    1.5935   -1.5256   -0.4263 Se  0  0  0  0  0  1  0  0  0  0  0  0
   -3.7838   -0.3562    0.3270 N   0  0  0  0  0  0  0  0  0  0  0  0
   -2.5584    1.4076    0.0249 N   0  0  0  0  0  0  0  0  0  0  0  0
    2.3098    1.2730    0.1736 N   0  0  0  0  0  0  0  0  0  0  0  0
    3.9712   -0.1679    0.3208 N   0  0  0  0  0  0  0  0  0  0  0  0
   -4.2267   -1.7269    0.5472 C   0  0  0  0  0  0  0  0  0  0  0  0
   -3.3555   -2.3996    0.3996 H   0  0  0  0  0  0  0  0  0  0  0  0
   -5.0222   -1.9820   -0.1799 H   0  0  0  0  0  0  0  0  0  0  0  0
   -4.6230   -1.8367    1.5765 H   0  0  0  0  0  0  0  0  0  0  0  0
   -4.6408    0.7420    0.2785 C   0  0  0  0  0  0  0  0  0  0  0  0
   -5.7244    0.6350    0.3846 H   0  0  0  0  0  0  0  0  0  0  0  0
   -3.8678    1.8587    0.0867 C   0  0  0  0  0  0  0  0  0  0  0  0
   -4.1480    2.9109   -0.0064 H   0  0  0  0  0  0  0  0  0  0  0  0
   -2.4896    0.0405    0.1726 C   0  0  0  0  0  2  0  0  0  0  0  0
   -1.3301    2.0982   -0.1256 C   0  0  0  0  0  0  0  0  0  0  0  0
   -1.2846    3.4785   -0.3362 C   0  0  0  0  0  0  0  0  0  0  0  0
   -2.2047    4.0755   -0.4125 H   0  0  0  0  0  0  0  0  0  0  0  0
   -0.0278    4.0853   -0.4774 C   0  0  0  0  0  0  0  0  0  0  0  0
    0.0497    5.1608   -0.6919 H   0  0  0  0  0  0  0  0  0  0  0  0
    1.1287    3.3152   -0.3494 C   0  0  0  0  0  0  0  0  0  0  0  0
    2.1056    3.7972   -0.4898 H   0  0  0  0  0  0  0  0  0  0  0  0
    1.0545    1.9247   -0.0798 C   0  0  0  0  0  0  0  0  0  0  0  0
   -0.1872    1.2469   -0.0282 C   0  0  0  0  0  3  0  0  0  0  0  0
    3.4454    1.9612    0.6179 C   0  0  0  0  0  0  0  0  0  0  0  0
    3.4142    3.0182    0.8846 H   0  0  0  0  0  0  0  0  0  0  0  0
    4.4739    1.0670    0.6974 C   0  0  0  0  0  0  0  0  0  0  0  0
    5.5124    1.2024    1.0121 H   0  0  0  0  0  0  0  0  0  0  0  0
    2.6349   -0.0594    0.0137 C   0  0  1  0  0  3  0  0  0  0  0  0
    4.7017   -1.4205    0.2926 C   0  0  0  0  0  0  0  0  0  0  0  0
    4.8073   -1.7916   -0.7470 H   0  0  0  0  0  0  0  0  0  0  0  0
    4.1473   -2.1857    0.8734 H   0  0  0  0  0  0  0  0  0  0  0  0
    5.7028   -1.2623    0.7323 H   0  0  0  0  0  0  0  0  0  0  0  0
  2  6  1  0  0  0  0
  3 12  1  0  0  0  0
  3 14  1  0  0  0  0
  4 24  1  0  0  0  0
  5 26  1  0  0  0  0
  6  9  1  0  0  0  0
  7  6  1  0  0  0  0
  8  6  1  0  0  0  0
 10  2  1  0  0  0  0
 10 11  1  0  0  0  0
 12 10  2  0  0  0  0
 13 12  1  0  0  0  0
 14  2  1  0  0  0  0
 15 23  1  0  0  0  0
 15  3  1  0  0  0  0
 16 15  2  0  0  0  0
 17 16  1  0  0  0  0
 18 20  2  0  0  0  0
 18 16  1  0  0  0  0
 19 18  1  0  0  0  0
 20 22  1  0  0  0  0
 21 20  1  0  0  0  0
 22 23  2  0  0  0  0
 22  4  1  0  0  0  0
 24 26  2  0  0  0  0
 24 25  1  0  0  0  0
 26 27  1  0  0  0  0
 28  1  1  1  0  0  0
 28  4  1  0  0  0  0
 28  5  1  0  0  0  0
 29  5  1  0  0  0  0
 29 32  1  0  0  0  0
 29 31  1  0  0  0  0
 30 29  1  0  0  0  0
M  END
