1,2,4
 OpenBabel05122313063D

 18 17  0  0  1  0  0  0  0  0999 V2000
   -2.4840   -1.1517   -0.6923 S   0  0  0  0  0  1  0  0  0  0  0  0
   -0.7916    1.3480   -0.6003 O   0  5  0  0  0  0  0  0  0  0  0  0
   -2.2763    2.9022   -1.3066 O   0  0  0  0  0  0  0  0  0  0  0  0
   -2.0742    0.8534    1.5436 N   0  0  0  0  0  0  0  0  0  0  0  0
   -2.5954    0.2828    2.2223 H   0  0  0  0  0  0  0  0  0  0  0  0
   -1.6491    1.6351    2.0587 H   0  0  0  0  0  0  0  0  0  0  0  0
   -3.7323    0.1599   -0.1486 C   0  0  0  0  0  0  0  0  0  0  0  0
   -2.9296    1.3441    0.4446 C   0  0  2  0  0  0  0  0  0  0  0  0
   -3.6396    2.1346    0.7735 H   0  0  0  0  0  0  0  0  0  0  0  0
   -1.9578    1.9614   -0.5968 C   0  0  0  0  0  0  0  0  0  0  0  0
   -4.6629   -0.4671    0.9002 C   0  0  0  0  0  0  0  0  0  0  0  0
   -4.1131   -0.8991    1.7614 H   0  0  0  0  0  0  0  0  0  0  0  0
   -5.2342   -1.3013    0.4476 H   0  0  0  0  0  0  0  0  0  0  0  0
   -5.3920    0.2823    1.2780 H   0  0  0  0  0  0  0  0  0  0  0  0
   -4.5355    0.6008   -1.3760 C   0  0  0  0  0  0  0  0  0  0  0  0
   -3.8900    1.0692   -2.1415 H   0  0  0  0  0  0  0  0  0  0  0  0
   -5.3124    1.3399   -1.0858 H   0  0  0  0  0  0  0  0  0  0  0  0
   -5.0434   -0.2735   -1.8287 H   0  0  0  0  0  0  0  0  0  0  0  0
  1  7  1  0  0  0  0
  2 10  1  0  0  0  0
  3 10  2  0  0  0  0
  4  6  1  0  0  0  0
  4  5  1  0  0  0  0
  7  8  1  0  0  0  0
  7 11  1  0  0  0  0
  8  9  1  1  0  0  0
  8  4  1  0  0  0  0
 10  8  1  0  0  0  0
 11 14  1  0  0  0  0
 11 12  1  0  0  0  0
 13 11  1  0  0  0  0
 15 17  1  0  0  0  0
 15  7  1  0  0  0  0
 16 15  1  0  0  0  0
 18 15  1  0  0  0  0
M  CHG  1   2  -1
M  END
