1,3,4
 OpenBabel05122313063D

 25 25  0  0  1  0  0  0  0  0999 V2000
   -1.7808   -1.4533   -0.2797 S   0  0  0  0  0  1  0  0  0  0  0  0
   -4.5180   -0.2562   -0.3652 S   0  0  0  0  0  0  0  0  0  0  0  0
    1.6009    0.4506   -0.5929 O   0  5  0  0  0  0  0  0  0  0  0  0
   -0.9331    1.2804    0.0121 N   0  0  0  0  0  2  0  0  0  0  0  0
   -2.3110    1.2150   -0.0975 N   0  0  0  0  0  0  0  0  0  0  0  0
    1.9353    1.7229   -0.4102 C   0  0  0  0  0  0  0  0  0  0  0  0
    3.3060    2.0480   -0.5788 C   0  0  0  0  0  0  0  0  0  0  0  0
    3.9823    1.2247   -0.8482 H   0  0  0  0  0  0  0  0  0  0  0  0
    3.7631    3.3459   -0.3781 C   0  0  0  0  0  0  0  0  0  0  0  0
    4.8344    3.5702   -0.4944 H   0  0  0  0  0  0  0  0  0  0  0  0
    2.8613    4.3701   -0.0098 C   0  0  0  0  0  0  0  0  0  0  0  0
    3.2246    5.3907    0.1773 H   0  0  0  0  0  0  0  0  0  0  0  0
    1.5083    4.0814    0.1126 C   0  0  0  0  0  0  0  0  0  0  0  0
    0.8201    4.8867    0.4021 H   0  0  0  0  0  0  0  0  0  0  0  0
    0.9934    2.7654   -0.0922 C   0  0  0  0  0  0  0  0  0  0  0  0
   -0.4331    2.5238   -0.0832 C   0  0  1  0  0  3  0  0  0  0  0  0
   -1.4133    3.6493   -0.2444 C   0  0  0  0  0  0  0  0  0  0  0  0
   -0.9214    4.6280   -0.3525 H   0  0  0  0  0  0  0  0  0  0  0  0
   -2.1215    3.6655    0.6079 H   0  0  0  0  0  0  0  0  0  0  0  0
   -2.0384    3.4591   -1.1396 H   0  0  0  0  0  0  0  0  0  0  0  0
   -2.8013    0.0154   -0.2215 C   0  0  0  0  0  0  0  0  0  0  0  0
   -5.1521    1.4459   -0.2931 C   0  0  0  0  0  0  0  0  0  0  0  0
   -6.2529    1.3628   -0.3644 H   0  0  0  0  0  0  0  0  0  0  0  0
   -4.7573    2.0401   -1.1386 H   0  0  0  0  0  0  0  0  0  0  0  0
   -4.8641    1.9224    0.6626 H   0  0  0  0  0  0  0  0  0  0  0  0
  1 21  1  0  0  0  0
  2 22  1  0  0  0  0
  2 21  1  0  0  0  0
  3  6  1  0  0  0  0
  5  4  1  0  0  0  0
  6 15  1  0  0  0  0
  7  6  2  0  0  0  0
  7  9  1  0  0  0  0
  8  7  1  0  0  0  0
  9 11  2  0  0  0  0
 10  9  1  0  0  0  0
 11 13  1  0  0  0  0
 11 12  1  0  0  0  0
 13 14  1  0  0  0  0
 15 16  1  0  0  0  0
 15 13  2  0  0  0  0
 16  4  1  6  0  0  0
 17 16  1  0  0  0  0
 17 19  1  0  0  0  0
 18 17  1  0  0  0  0
 20 17  1  0  0  0  0
 21  5  2  0  0  0  0
 22 25  1  0  0  0  0
 23 22  1  0  0  0  0
 24 22  1  0  0  0  0
M  CHG  1   3  -1
M  END
