1,2,3
 OpenBabel05122313063D

 40 41  0  0  0  0  0  0  0  0999 V2000
    2.6727   -0.4970   -1.3091 S   0  0  0  0  0  1  0  0  0  0  0  0
   -1.1481   -0.3156    0.0051 O   0  5  0  0  0  0  0  0  0  0  0  0
    0.8429    1.5009   -0.2239 N   0  0  0  0  0  2  0  0  0  0  0  0
    3.1423    1.1403   -0.8550 C   0  0  0  0  0  0  0  0  0  0  0  0
    4.4677    1.6016   -0.9940 C   0  0  0  0  0  0  0  0  0  0  0  0
    5.2230    0.9211   -1.4144 H   0  0  0  0  0  0  0  0  0  0  0  0
    4.8177    2.8969   -0.5913 C   0  0  0  0  0  0  0  0  0  0  0  0
    5.8589    3.2375   -0.6969 H   0  0  0  0  0  0  0  0  0  0  0  0
    3.8504    3.7499   -0.0302 C   0  0  0  0  0  0  0  0  0  0  0  0
    4.1313    4.7531    0.3230 H   0  0  0  0  0  0  0  0  0  0  0  0
    2.5275    3.3101    0.1048 C   0  0  0  0  0  0  0  0  0  0  0  0
    1.7815    3.9633    0.5816 H   0  0  0  0  0  0  0  0  0  0  0  0
    2.1579    2.0170   -0.3214 C   0  0  0  0  0  0  0  0  0  0  0  0
   -0.1773    2.3290   -0.2872 C   0  0  0  0  0  3  0  0  0  0  0  0
    0.0430    3.4009   -0.4691 H   0  0  0  0  0  0  0  0  0  0  0  0
   -1.5713    2.0141   -0.1590 C   0  0  0  0  0  0  0  0  0  0  0  0
   -2.5162    3.0751   -0.2074 C   0  0  0  0  0  0  0  0  0  0  0  0
   -2.1479    4.1054   -0.3420 H   0  0  0  0  0  0  0  0  0  0  0  0
   -3.8793    2.8307   -0.0797 C   0  0  0  0  0  0  0  0  0  0  0  0
   -4.9006    3.9392   -0.1207 C   0  0  0  0  0  0  0  0  0  0  0  0
   -4.4244    4.9278   -0.2676 H   0  0  0  0  0  0  0  0  0  0  0  0
   -5.4887    3.9837    0.8201 H   0  0  0  0  0  0  0  0  0  0  0  0
   -5.6289    3.7889   -0.9453 H   0  0  0  0  0  0  0  0  0  0  0  0
   -4.2968    1.4834    0.0954 C   0  0  0  0  0  0  0  0  0  0  0  0
   -5.3767    1.3012    0.1942 H   0  0  0  0  0  0  0  0  0  0  0  0
   -3.4246    0.3902    0.1442 C   0  0  0  0  0  0  0  0  0  0  0  0
   -2.0229    0.6647    0.0051 C   0  0  0  0  0  0  0  0  0  0  0  0
   -3.9202   -1.0547    0.3391 C   0  0  0  0  0  0  0  0  0  0  0  0
   -5.4546   -1.1217    0.4389 C   0  0  0  0  0  0  0  0  0  0  0  0
   -5.9486   -0.7480   -0.4811 H   0  0  0  0  0  0  0  0  0  0  0  0
   -5.8427   -0.5430    1.3017 H   0  0  0  0  0  0  0  0  0  0  0  0
   -5.7679   -2.1755    0.5796 H   0  0  0  0  0  0  0  0  0  0  0  0
   -3.4823   -1.9311   -0.8599 C   0  0  0  0  0  0  0  0  0  0  0  0
   -3.8937   -1.5332   -1.8099 H   0  0  0  0  0  0  0  0  0  0  0  0
   -3.8650   -2.9648   -0.7294 H   0  0  0  0  0  0  0  0  0  0  0  0
   -2.3810   -1.9760   -0.9449 H   0  0  0  0  0  0  0  0  0  0  0  0
   -3.3310   -1.6274    1.6508 C   0  0  0  0  0  0  0  0  0  0  0  0
   -3.6828   -2.6692    1.8009 H   0  0  0  0  0  0  0  0  0  0  0  0
   -3.6588   -1.0269    2.5236 H   0  0  0  0  0  0  0  0  0  0  0  0
   -2.2258   -1.6364    1.6282 H   0  0  0  0  0  0  0  0  0  0  0  0
  1  4  1  0  0  0  0
  4 13  1  0  0  0  0
  5  4  2  0  0  0  0
  5  7  1  0  0  0  0
  6  5  1  0  0  0  0
  7  9  2  0  0  0  0
  8  7  1  0  0  0  0
  9 11  1  0  0  0  0
  9 10  1  0  0  0  0
 11 12  1  0  0  0  0
 13  3  1  0  0  0  0
 13 11  2  0  0  0  0
 14  3  1  0  0  0  0
 14 16  1  0  0  0  0
 15 14  1  0  0  0  0
 16 27  1  0  0  0  0
 17 16  2  0  0  0  0
 17 19  1  0  0  0  0
 18 17  1  0  0  0  0
 19 24  2  0  0  0  0
 20 19  1  0  0  0  0
 20 22  1  0  0  0  0
 21 20  1  0  0  0  0
 23 20  1  0  0  0  0
 24 26  1  0  0  0  0
 24 25  1  0  0  0  0
 26 28  1  0  0  0  0
 27  2  1  0  0  0  0
 27 26  2  0  0  0  0
 28 29  1  0  0  0  0
 28 37  1  0  0  0  0
 29 32  1  0  0  0  0
 29 31  1  0  0  0  0
 30 29  1  0  0  0  0
 33 35  1  0  0  0  0
 33 28  1  0  0  0  0
 34 33  1  0  0  0  0
 36 33  1  0  0  0  0
 37 38  1  0  0  0  0
 37 39  1  0  0  0  0
 40 37  1  0  0  0  0
M  CHG  1   2  -1
M  END
