1,2,3
 OpenBabel05122313063D

 32 33  0  0  0  0  0  0  0  0999 V2000
   -3.1981   -0.2165   -0.0101 S   0  0  0  0  0  1  0  0  0  0  0  0
    0.7171   -1.7792    0.3572 O   0  5  0  0  0  0  0  0  0  0  0  0
   -0.4436    0.7223    0.3081 N   0  0  0  0  0  2  0  0  0  0  0  0
   -1.3294    1.7132    0.5557 N   0  0  0  0  0  0  0  0  0  0  0  0
   -3.5172    2.3755    0.6129 N   0  0  0  0  0  0  0  0  0  0  0  0
    1.8908   -1.1547    0.2067 C   0  0  0  0  0  0  0  0  0  0  0  0
    3.0543   -1.9712    0.1349 C   0  0  0  0  0  0  0  0  0  0  0  0
    2.9145   -3.0608    0.1725 H   0  0  0  0  0  0  0  0  0  0  0  0
    4.3041   -1.3970    0.0213 C   0  0  0  0  0  0  0  0  0  0  0  0
    5.2011   -2.0329   -0.0368 H   0  0  0  0  0  0  0  0  0  0  0  0
    4.4644    0.0207   -0.0323 C   0  0  0  0  0  0  0  0  0  0  0  0
    5.7563    0.6046   -0.1633 C   0  0  0  0  0  0  0  0  0  0  0  0
    6.6293   -0.0646   -0.2153 H   0  0  0  0  0  0  0  0  0  0  0  0
    5.9179    1.9804   -0.2287 C   0  0  0  0  0  0  0  0  0  0  0  0
    6.9212    2.4201   -0.3308 H   0  0  0  0  0  0  0  0  0  0  0  0
    4.7766    2.8173   -0.1713 C   0  0  0  0  0  0  0  0  0  0  0  0
    4.8953    3.9096   -0.2342 H   0  0  0  0  0  0  0  0  0  0  0  0
    3.5032    2.2746   -0.0437 C   0  0  0  0  0  0  0  0  0  0  0  0
    2.6431    2.9573   -0.0222 H   0  0  0  0  0  0  0  0  0  0  0  0
    3.2989    0.8672    0.0399 C   0  0  0  0  0  0  0  0  0  0  0  0
    1.9844    0.2595    0.1770 C   0  0  0  0  0  0  0  0  0  0  0  0
    0.8241    1.0922    0.3519 C   0  0  0  0  0  3  0  0  0  0  0  0
    0.9733    2.1663    0.5516 H   0  0  0  0  0  0  0  0  0  0  0  0
   -2.6003    1.3921    0.4045 C   0  0  0  0  0  0  0  0  0  0  0  0
   -4.9469    2.2766    0.3745 C   0  0  0  0  0  0  0  0  0  0  0  0
   -5.4451    3.0117    1.0402 H   0  0  0  0  0  0  0  0  0  0  0  0
   -5.2788    1.2713    0.7089 H   0  0  0  0  0  0  0  0  0  0  0  0
   -5.3522    2.5059   -1.0841 C   0  0  0  0  0  0  0  0  0  0  0  0
   -6.4523    2.4267   -1.1974 H   0  0  0  0  0  0  0  0  0  0  0  0
   -4.8816    1.7465   -1.7396 H   0  0  0  0  0  0  0  0  0  0  0  0
   -5.0416    3.5109   -1.4351 H   0  0  0  0  0  0  0  0  0  0  0  0
   -3.1019    3.2972    0.7698 H   0  0  0  0  0  0  0  0  0  0  0  0
  1 24  1  0  0  0  0
  3 22  1  0  0  0  0
  3  4  1  0  0  0  0
  5 32  1  0  0  0  0
  6  2  1  0  0  0  0
  7  8  1  0  0  0  0
  7  6  2  0  0  0  0
  9  7  1  0  0  0  0
 10  9  1  0  0  0  0
 11  9  2  0  0  0  0
 11 20  1  0  0  0  0
 12 11  1  0  0  0  0
 13 12  1  0  0  0  0
 14 16  1  0  0  0  0
 14 12  2  0  0  0  0
 15 14  1  0  0  0  0
 16 18  2  0  0  0  0
 17 16  1  0  0  0  0
 18 19  1  0  0  0  0
 18 20  1  0  0  0  0
 20 21  2  0  0  0  0
 21  6  1  0  0  0  0
 21 22  1  0  0  0  0
 22 23  1  0  0  0  0
 24  4  2  0  0  0  0
 24  5  1  0  0  0  0
 25  5  1  0  0  0  0
 25 27  1  0  0  0  0
 25 26  1  0  0  0  0
 28 25  1  0  0  0  0
 29 28  1  0  0  0  0
 30 28  1  0  0  0  0
 31 28  1  0  0  0  0
M  CHG  1   2  -1
M  END
