2,3,4
 OpenBabel05122313063D

 53 56  0  0  0  0  0  0  0  0999 V2000
    6.3760   -3.0628    0.9792 Br  0  0  0  0  0  0  0  0  0  0  0  0
   -1.0261    2.0880   -1.7008 S   0  0  0  0  0  1  0  0  0  0  0  0
    3.1438    1.7766   -0.6872 O   0  5  0  0  0  0  0  0  0  0  0  0
    0.8512    0.1661   -0.4875 N   0  0  0  0  0  2  0  0  0  0  0  0
   -0.4395   -0.2077   -0.3082 N   0  0  0  0  0  0  0  0  0  0  0  0
   -2.6604    0.2116   -0.8062 N   0  0  0  0  0  0  0  0  0  0  0  0
   -3.3178    0.9537   -1.0507 H   0  0  0  0  0  0  0  0  0  0  0  0
    3.1678   -0.5438   -0.0294 C   0  0  0  0  0  0  0  0  0  0  0  0
    3.8236    0.6893   -0.3396 C   0  0  0  0  0  0  0  0  0  0  0  0
    5.2309    0.7690   -0.2399 C   0  0  0  0  0  0  0  0  0  0  0  0
    5.7099    1.7291   -0.4781 H   0  0  0  0  0  0  0  0  0  0  0  0
    5.9897   -0.3385    0.1450 C   0  0  0  0  0  0  0  0  0  0  0  0
    7.0844   -0.2658    0.2127 H   0  0  0  0  0  0  0  0  0  0  0  0
    5.3430   -1.5529    0.4498 C   0  0  0  0  0  0  0  0  0  0  0  0
    3.9546   -1.6552    0.3707 C   0  0  0  0  0  0  0  0  0  0  0  0
    3.4553   -2.6039    0.6161 H   0  0  0  0  0  0  0  0  0  0  0  0
    1.7340   -0.7024   -0.0473 C   0  0  0  0  0  3  0  0  0  0  0  0
    1.3224   -1.6481    0.3528 H   0  0  0  0  0  0  0  0  0  0  0  0
   -1.3422    0.5757   -0.8519 C   0  0  0  0  0  0  0  0  0  0  0  0
   -3.2297   -0.8951   -0.0159 C   0  0  0  0  0  0  0  0  0  0  0  0
   -3.0664   -0.5239    1.4765 C   0  0  0  0  0  0  0  0  0  0  0  0
   -1.9656   -0.9653    2.2364 C   0  0  0  0  0  0  0  0  0  0  0  0
   -1.2321   -1.6384    1.7754 H   0  0  0  0  0  0  0  0  0  0  0  0
   -1.7955   -0.5425    3.5644 C   0  0  0  0  0  0  0  0  0  0  0  0
   -0.9320   -0.9069    4.1417 H   0  0  0  0  0  0  0  0  0  0  0  0
   -2.7169    0.3354    4.1548 C   0  0  0  0  0  0  0  0  0  0  0  0
   -2.5887    0.6558    5.2001 H   0  0  0  0  0  0  0  0  0  0  0  0
   -3.8010    0.8071    3.3965 C   0  0  0  0  0  0  0  0  0  0  0  0
   -4.5289    1.5022    3.8428 H   0  0  0  0  0  0  0  0  0  0  0  0
   -3.9673    0.3859    2.0690 C   0  0  0  0  0  0  0  0  0  0  0  0
   -4.8228    0.7600    1.4868 H   0  0  0  0  0  0  0  0  0  0  0  0
   -2.6030   -2.2496   -0.4093 C   0  0  0  0  0  0  0  0  0  0  0  0
   -2.0146   -2.4300   -1.6748 C   0  0  0  0  0  0  0  0  0  0  0  0
   -1.9318   -1.5766   -2.3620 H   0  0  0  0  0  0  0  0  0  0  0  0
   -1.5264   -3.6846   -2.0641 C   0  0  0  0  0  0  0  0  0  0  0  0
   -1.0589   -3.7999   -3.0537 H   0  0  0  0  0  0  0  0  0  0  0  0
   -1.6271   -4.7851   -1.1984 C   0  0  0  0  0  0  0  0  0  0  0  0
   -1.2397   -5.7692   -1.5027 H   0  0  0  0  0  0  0  0  0  0  0  0
   -2.2342   -4.6197    0.0552 C   0  0  0  0  0  0  0  0  0  0  0  0
   -2.3320   -5.4753    0.7407 H   0  0  0  0  0  0  0  0  0  0  0  0
   -2.7235   -3.3631    0.4433 C   0  0  0  0  0  0  0  0  0  0  0  0
   -3.2037   -3.2525    1.4262 H   0  0  0  0  0  0  0  0  0  0  0  0
   -4.7134   -1.0352   -0.4261 C   0  0  0  0  0  0  0  0  0  0  0  0
   -5.6414   -1.6376    0.4474 C   0  0  0  0  0  0  0  0  0  0  0  0
   -5.3221   -1.9435    1.4538 H   0  0  0  0  0  0  0  0  0  0  0  0
   -6.9690   -1.8453    0.0510 C   0  0  0  0  0  0  0  0  0  0  0  0
   -7.6769   -2.3138    0.7515 H   0  0  0  0  0  0  0  0  0  0  0  0
   -7.3963   -1.4579   -1.2293 C   0  0  0  0  0  0  0  0  0  0  0  0
   -8.4398   -1.6189   -1.5390 H   0  0  0  0  0  0  0  0  0  0  0  0
   -6.4780   -0.8717   -2.1113 C   0  0  0  0  0  0  0  0  0  0  0  0
   -6.7933   -0.5745   -3.1229 H   0  0  0  0  0  0  0  0  0  0  0  0
   -5.1464   -0.6684   -1.7155 C   0  0  0  0  0  0  0  0  0  0  0  0
   -4.4319   -0.2397   -2.4336 H   0  0  0  0  0  0  0  0  0  0  0  0
  2 19  1  0  0  0  0
  3  9  1  0  0  0  0
  4  5  1  0  0  0  0
  4 17  1  0  0  0  0
  6 20  1  0  0  0  0
  7  6  1  0  0  0  0
  8 15  1  0  0  0  0
  9 10  1  0  0  0  0
  9  8  2  0  0  0  0
 10 12  2  0  0  0  0
 11 10  1  0  0  0  0
 12 13  1  0  0  0  0
 12 14  1  0  0  0  0
 14  1  1  0  0  0  0
 15 14  2  0  0  0  0
 15 16  1  0  0  0  0
 17  8  1  0  0  0  0
 17 18  1  0  0  0  0
 19  6  1  0  0  0  0
 19  5  2  0  0  0  0
 20 21  1  0  0  0  0
 21 30  2  0  0  0  0
 21 22  1  0  0  0  0
 22 24  2  0  0  0  0
 23 22  1  0  0  0  0
 24 25  1  0  0  0  0
 24 26  1  0  0  0  0
 26 27  1  0  0  0  0
 28 29  1  0  0  0  0
 28 26  2  0  0  0  0
 30 28  1  0  0  0  0
 31 30  1  0  0  0  0
 32 20  1  0  0  0  0
 32 41  1  0  0  0  0
 33 32  2  0  0  0  0
 34 33  1  0  0  0  0
 35 33  1  0  0  0  0
 35 37  2  0  0  0  0
 36 35  1  0  0  0  0
 37 39  1  0  0  0  0
 38 37  1  0  0  0  0
 39 41  2  0  0  0  0
 39 40  1  0  0  0  0
 41 42  1  0  0  0  0
 43 20  1  0  0  0  0
 43 44  1  0  0  0  0
 44 45  1  0  0  0  0
 46 44  2  0  0  0  0
 46 47  1  0  0  0  0
 48 46  1  0  0  0  0
 49 48  1  0  0  0  0
 50 52  1  0  0  0  0
 50 48  2  0  0  0  0
 51 50  1  0  0  0  0
 52 43  2  0  0  0  0
 53 52  1  0  0  0  0
M  CHG  1   3  -1
M  END
