2,3,4
 OpenBabel05122313063D

 53 56  0  0  0  0  0  0  0  0999 V2000
    6.5326   -2.3220    0.6867 I   0  0  0  0  0  0  0  0  0  0  0  0
   -1.6587    2.1517   -1.6124 S   0  0  0  0  0  1  0  0  0  0  0  0
    2.5453    2.3144   -0.7095 O   0  5  0  0  0  0  0  0  0  0  0  0
    0.4732    0.4252   -0.5344 N   0  0  0  0  0  2  0  0  0  0  0  0
   -0.7564   -0.1122   -0.3415 N   0  0  0  0  0  0  0  0  0  0  0  0
   -3.0258    0.0539   -0.7642 N   0  0  0  0  0  0  0  0  0  0  0  0
   -3.7753    0.7199   -0.9582 H   0  0  0  0  0  0  0  0  0  0  0  0
    2.8718   -0.0128   -0.1675 C   0  0  0  0  0  0  0  0  0  0  0  0
    3.3625    1.3047   -0.4321 C   0  0  0  0  0  0  0  0  0  0  0  0
    4.7518    1.5524   -0.3627 C   0  0  0  0  0  0  0  0  0  0  0  0
    5.1032    2.5742   -0.5646 H   0  0  0  0  0  0  0  0  0  0  0  0
    5.6519    0.5301   -0.0516 C   0  0  0  0  0  0  0  0  0  0  0  0
    6.7298    0.7421   -0.0091 H   0  0  0  0  0  0  0  0  0  0  0  0
    5.1681   -0.7682    0.2086 C   0  0  0  0  0  0  0  0  0  0  0  0
    3.8003   -1.0365    0.1581 C   0  0  0  0  0  0  0  0  0  0  0  0
    3.4199   -2.0471    0.3671 H   0  0  0  0  0  0  0  0  0  0  0  0
    1.4683   -0.3465   -0.1581 C   0  0  0  0  0  3  0  0  0  0  0  0
    1.1877   -1.3528    0.2060 H   0  0  0  0  0  0  0  0  0  0  0  0
   -1.7635    0.5775   -0.8257 C   0  0  0  0  0  0  0  0  0  0  0  0
   -3.4338   -1.1504   -0.0187 C   0  0  0  0  0  0  0  0  0  0  0  0
   -2.6557   -2.3965   -0.4921 C   0  0  0  0  0  0  0  0  0  0  0  0
   -2.6069   -3.5523    0.3097 C   0  0  0  0  0  0  0  0  0  0  0  0
   -3.0632   -3.5464    1.3100 H   0  0  0  0  0  0  0  0  0  0  0  0
   -1.9779   -4.7188   -0.1517 C   0  0  0  0  0  0  0  0  0  0  0  0
   -1.9445   -5.6091    0.4947 H   0  0  0  0  0  0  0  0  0  0  0  0
   -1.3982   -4.7513   -1.4285 C   0  0  0  0  0  0  0  0  0  0  0  0
   -0.9016   -5.6642   -1.7903 H   0  0  0  0  0  0  0  0  0  0  0  0
   -1.4654   -3.6101   -2.2433 C   0  0  0  0  0  0  0  0  0  0  0  0
   -1.0211   -3.6220   -3.2502 H   0  0  0  0  0  0  0  0  0  0  0  0
   -2.0930   -2.4456   -1.7810 C   0  0  0  0  0  0  0  0  0  0  0  0
   -2.1412   -1.5592   -2.4287 H   0  0  0  0  0  0  0  0  0  0  0  0
   -4.8994   -1.4544   -0.4054 C   0  0  0  0  0  0  0  0  0  0  0  0
   -5.7196   -2.2154    0.4520 C   0  0  0  0  0  0  0  0  0  0  0  0
   -5.3357   -2.5331    1.4318 H   0  0  0  0  0  0  0  0  0  0  0  0
   -7.0220   -2.5665    0.0735 C   0  0  0  0  0  0  0  0  0  0  0  0
   -7.6457   -3.1576    0.7612 H   0  0  0  0  0  0  0  0  0  0  0  0
   -7.5309   -2.1671   -1.1728 C   0  0  0  0  0  0  0  0  0  0  0  0
   -8.5549   -2.4408   -1.4683 H   0  0  0  0  0  0  0  0  0  0  0  0
   -6.7184   -1.4234   -2.0396 C   0  0  0  0  0  0  0  0  0  0  0  0
   -7.0971   -1.1140   -3.0255 H   0  0  0  0  0  0  0  0  0  0  0  0
   -5.4115   -1.0760   -1.6620 C   0  0  0  0  0  0  0  0  0  0  0  0
   -4.7772   -0.5229   -2.3702 H   0  0  0  0  0  0  0  0  0  0  0  0
   -3.2786   -0.8323    1.4869 C   0  0  0  0  0  0  0  0  0  0  0  0
   -2.1084   -1.1610    2.1989 C   0  0  0  0  0  0  0  0  0  0  0  0
   -1.3065   -1.7082    1.6880 H   0  0  0  0  0  0  0  0  0  0  0  0
   -1.9575   -0.7845    3.5431 C   0  0  0  0  0  0  0  0  0  0  0  0
   -1.0379   -1.0597    4.0819 H   0  0  0  0  0  0  0  0  0  0  0  0
   -2.9687   -0.0656    4.1981 C   0  0  0  0  0  0  0  0  0  0  0  0
   -2.8539    0.2174    5.2557 H   0  0  0  0  0  0  0  0  0  0  0  0
   -4.1258    0.2955    3.4889 C   0  0  0  0  0  0  0  0  0  0  0  0
   -4.9253    0.8662    3.9863 H   0  0  0  0  0  0  0  0  0  0  0  0
   -4.2733   -0.0789    2.1451 C   0  0  0  0  0  0  0  0  0  0  0  0
   -5.1865    0.2070    1.6019 H   0  0  0  0  0  0  0  0  0  0  0  0
  2 19  1  0  0  0  0
  3  9  1  0  0  0  0
  4  5  1  0  0  0  0
  4 17  1  0  0  0  0
  6 20  1  0  0  0  0
  7  6  1  0  0  0  0
  8 17  1  0  0  0  0
  8 15  1  0  0  0  0
  9 10  1  0  0  0  0
  9  8  2  0  0  0  0
 10 12  2  0  0  0  0
 11 10  1  0  0  0  0
 12 13  1  0  0  0  0
 12 14  1  0  0  0  0
 14  1  1  0  0  0  0
 15 14  2  0  0  0  0
 15 16  1  0  0  0  0
 17 18  1  0  0  0  0
 19  6  1  0  0  0  0
 19  5  2  0  0  0  0
 20 43  1  0  0  0  0
 21 20  1  0  0  0  0
 21 22  1  0  0  0  0
 22 23  1  0  0  0  0
 24 22  2  0  0  0  0
 24 25  1  0  0  0  0
 26 24  1  0  0  0  0
 27 26  1  0  0  0  0
 28 30  1  0  0  0  0
 28 26  2  0  0  0  0
 29 28  1  0  0  0  0
 30 21  2  0  0  0  0
 31 30  1  0  0  0  0
 32 20  1  0  0  0  0
 32 33  1  0  0  0  0
 33 34  1  0  0  0  0
 35 33  2  0  0  0  0
 35 36  1  0  0  0  0
 37 35  1  0  0  0  0
 38 37  1  0  0  0  0
 39 41  1  0  0  0  0
 39 37  2  0  0  0  0
 40 39  1  0  0  0  0
 41 32  2  0  0  0  0
 42 41  1  0  0  0  0
 43 52  2  0  0  0  0
 43 44  1  0  0  0  0
 44 46  2  0  0  0  0
 45 44  1  0  0  0  0
 46 47  1  0  0  0  0
 46 48  1  0  0  0  0
 48 49  1  0  0  0  0
 50 51  1  0  0  0  0
 50 48  2  0  0  0  0
 52 50  1  0  0  0  0
 53 52  1  0  0  0  0
M  CHG  1   3  -1
M  END
