1,2,3
 OpenBabel05122313063D

 30 32  0  0  0  0  0  0  0  0999 V2000
    3.7188    0.8145    0.0204 S   0  0  0  0  0  1  0  0  0  0  0  0
    0.2253   -1.7325    0.0056 O   0  5  0  0  0  0  0  0  0  0  0  0
    0.7880    0.8072   -0.0005 N   0  0  0  0  0  2  0  0  0  0  0  0
    1.2383    2.0609   -0.0005 N   0  0  0  0  0  0  0  0  0  0  0  0
    3.0868    3.3999    0.0067 N   0  0  0  0  0  0  0  0  0  0  0  0
    2.4503    4.1968    0.0028 H   0  0  0  0  0  0  0  0  0  0  0  0
    4.0945    3.5471    0.0196 H   0  0  0  0  0  0  0  0  0  0  0  0
   -0.7638   -0.9274    0.0067 C   0  0  0  0  0  0  0  0  0  0  0  0
   -2.1218   -1.4526    0.0109 C   0  0  0  0  0  0  0  0  0  0  0  0
   -2.3178   -2.8543    0.0244 C   0  0  0  0  0  0  0  0  0  0  0  0
   -1.4265   -3.4974    0.0316 H   0  0  0  0  0  0  0  0  0  0  0  0
   -3.6042   -3.3874    0.0287 C   0  0  0  0  0  0  0  0  0  0  0  0
   -3.7551   -4.4769    0.0395 H   0  0  0  0  0  0  0  0  0  0  0  0
   -4.7110   -2.5148    0.0197 C   0  0  0  0  0  0  0  0  0  0  0  0
   -5.7334   -2.9222    0.0233 H   0  0  0  0  0  0  0  0  0  0  0  0
   -4.5250   -1.1301    0.0061 C   0  0  0  0  0  0  0  0  0  0  0  0
   -5.4131   -0.4846   -0.0008 H   0  0  0  0  0  0  0  0  0  0  0  0
   -3.2306   -0.5567    0.0010 C   0  0  0  0  0  0  0  0  0  0  0  0
   -3.0036    0.8997   -0.0150 C   0  0  0  0  0  0  0  0  0  0  0  0
   -4.0943    1.7979   -0.0295 C   0  0  0  0  0  0  0  0  0  0  0  0
   -5.1193    1.4044   -0.0282 H   0  0  0  0  0  0  0  0  0  0  0  0
   -3.9154    3.1830   -0.0468 C   0  0  0  0  0  0  0  0  0  0  0  0
   -4.7915    3.8486   -0.0582 H   0  0  0  0  0  0  0  0  0  0  0  0
   -2.6149    3.7109   -0.0501 C   0  0  0  0  0  0  0  0  0  0  0  0
   -2.4566    4.7998   -0.0643 H   0  0  0  0  0  0  0  0  0  0  0  0
   -1.5130    2.8536   -0.0349 C   0  0  0  0  0  0  0  0  0  0  0  0
   -0.4930    3.2499   -0.0363 H   0  0  0  0  0  0  0  0  0  0  0  0
   -1.6710    1.4426   -0.0170 C   0  0  0  0  0  0  0  0  0  0  0  0
   -0.5352    0.5201   -0.0016 C   0  0  0  0  0  0  0  0  0  0  0  0
    2.5856    2.1479    0.0102 C   0  0  0  0  0  0  0  0  0  0  0  0
  2  8  1  0  0  0  0
  3  4  1  0  0  0  0
  4 30  2  0  0  0  0
  5 30  1  0  0  0  0
  5  7  1  0  0  0  0
  6  5  1  0  0  0  0
  8  9  1  0  0  0  0
  9 10  1  0  0  0  0
 10 12  2  0  0  0  0
 10 11  1  0  0  0  0
 12 13  1  0  0  0  0
 14 15  1  0  0  0  0
 14 12  1  0  0  0  0
 16 14  2  0  0  0  0
 17 16  1  0  0  0  0
 18 16  1  0  0  0  0
 18  9  2  0  0  0  0
 19 18  1  0  0  0  0
 20 21  1  0  0  0  0
 20 19  2  0  0  0  0
 22 20  1  0  0  0  0
 23 22  1  0  0  0  0
 24 22  2  0  0  0  0
 24 26  1  0  0  0  0
 25 24  1  0  0  0  0
 26 28  2  0  0  0  0
 27 26  1  0  0  0  0
 28 19  1  0  0  0  0
 28 29  1  0  0  0  0
 29  3  1  0  0  0  0
 29  8  2  0  0  0  0
 30  1  1  0  0  0  0
M  CHG  1   2  -1
M  END
