1,2,3
 OpenBabel05122313063D

 24 25  0  0  1  0  0  0  0  0999 V2000
    1.3291    1.9818    0.8129 S   0  0  0  0  0  0  0  0  0  0  0  0
    0.4142    0.6250   -1.7404 O   0  5  0  0  0  0  0  0  0  0  0  0
   -1.0644    0.1047    0.5371 N   0  0  0  0  0  2  0  0  0  0  0  0
    0.2266    1.9074   -1.8481 C   0  0  0  0  0  0  0  0  0  0  0  0
   -0.4000    2.4896   -2.7246 O   0  0  0  0  0  0  0  0  0  0  0  0
    0.9495    2.7921   -0.7914 C   0  0  0  0  0  0  0  0  0  0  0  0
   -0.2790    2.1667    1.6965 C   0  0  0  0  0  0  0  0  0  0  0  0
   -1.3265    1.2740    1.1254 C   0  0  2  0  0  3  0  0  0  0  0  0
   -2.6704    1.5267    1.1540 N   0  0  0  0  0  0  0  0  0  0  0  0
   -3.3259    0.4611    0.5505 C   0  0  0  0  0  0  0  0  0  0  0  0
   -4.6832    0.2045    0.3075 C   0  0  0  0  0  0  0  0  0  0  0  0
   -4.9841   -0.9939   -0.3495 C   0  0  0  0  0  0  0  0  0  0  0  0
   -3.9669   -1.8954   -0.7469 C   0  0  0  0  0  0  0  0  0  0  0  0
   -2.6145   -1.6359   -0.5043 C   0  0  0  0  0  0  0  0  0  0  0  0
   -2.2932   -0.4377    0.1581 C   0  0  0  0  0  0  0  0  0  0  0  0
   -3.1081    2.3606    1.5445 H   0  0  0  0  0  0  0  0  0  0  0  0
    1.9453    3.0696   -1.1959 H   0  0  0  0  0  0  0  0  0  0  0  0
    0.3893    3.7283   -0.6053 H   0  0  0  0  0  0  0  0  0  0  0  0
   -0.5830    3.2327    1.6867 H   0  0  0  0  0  0  0  0  0  0  0  0
   -0.0479    1.8866    2.7469 H   0  0  0  0  0  0  0  0  0  0  0  0
   -5.4709    0.9080    0.6128 H   0  0  0  0  0  0  0  0  0  0  0  0
   -6.0346   -1.2387   -0.5646 H   0  0  0  0  0  0  0  0  0  0  0  0
   -4.2482   -2.8240   -1.2646 H   0  0  0  0  0  0  0  0  0  0  0  0
   -1.8329   -2.3368   -0.8206 H   0  0  0  0  0  0  0  0  0  0  0  0
  1  7  1  0  0  0  0
  3  8  1  0  0  0  0
  4  2  1  0  0  0  0
  4  6  1  0  0  0  0
  5  4  2  0  0  0  0
  6 18  1  0  0  0  0
  6  1  1  0  0  0  0
  7 20  1  0  0  0  0
  8  9  1  0  0  0  0
  8  7  1  1  0  0  0
  9 16  1  0  0  0  0
 10  9  1  0  0  0  0
 11 10  1  0  0  0  0
 11 21  1  0  0  0  0
 12 11  2  0  0  0  0
 13 14  2  0  0  0  0
 13 12  1  0  0  0  0
 14 15  1  0  0  0  0
 15  3  1  0  0  0  0
 15 10  2  0  0  0  0
 17  6  1  0  0  0  0
 19  7  1  0  0  0  0
 22 12  1  0  0  0  0
 23 13  1  0  0  0  0
 24 14  1  0  0  0  0
M  CHG  1   2  -1
M  END
