1,14,19
 OpenBabel05122313063D

 21 21  0  0  1  0  0  0  0  0999 V2000
    0.5434   -2.8797   -0.1114 S   0  0  0  0  0  1  0  0  0  0  0  0
   -3.0966    0.7757   -0.0535 C   0  0  1  0  0  3  0  0  0  0  0  0
   -3.6851    2.0881   -0.1375 C   0  0  0  0  0  0  0  0  0  0  0  0
   -5.0646    2.2637   -0.0644 C   0  0  0  0  0  0  0  0  0  0  0  0
   -5.4677    3.2852   -0.1274 H   0  0  0  0  0  0  0  0  0  0  0  0
   -5.9156    1.1413    0.0814 C   0  0  0  0  0  0  0  0  0  0  0  0
   -7.0040    1.2885    0.1403 H   0  0  0  0  0  0  0  0  0  0  0  0
   -5.3795   -0.1367    0.1390 C   0  0  0  0  0  0  0  0  0  0  0  0
   -6.0371   -1.0138    0.2376 H   0  0  0  0  0  0  0  0  0  0  0  0
   -3.9654   -0.3552    0.0647 C   0  0  0  0  0  0  0  0  0  0  0  0
   -3.5108   -1.7136    0.0953 C   0  0  0  0  0  0  0  0  0  0  0  0
   -4.2784   -2.5048    0.1790 H   0  0  0  0  0  0  0  0  0  0  0  0
   -0.8788   -3.9352   -0.0095 C   0  0  0  0  0  0  0  0  0  0  0  0
   -2.2719   -2.1578    0.0207 N   0  0  0  0  0  2  0  0  0  0  0  0
   -2.1161   -3.5139    0.0526 N   0  0  0  0  0  0  0  0  0  0  0  0
   -0.6363   -5.2851   -0.0524 N   0  0  0  0  0  0  0  0  0  0  0  0
   -1.4208   -5.8897    0.1942 H   0  0  0  0  0  0  0  0  0  0  0  0
    0.2931   -5.6073    0.2120 H   0  0  0  0  0  0  0  0  0  0  0  0
   -1.7802    0.7698   -0.1063 O   0  0  0  0  0  1  0  0  0  0  0  0
   -2.8385    3.1337   -0.2919 O   0  0  0  0  0  0  0  0  0  0  0  0
   -1.9426    2.7207   -0.3477 H   0  0  0  0  0  0  0  0  0  0  0  0
  1 13  1  0  0  0  0
  2 19  1  6  0  0  0
  2 10  1  0  0  0  0
  3  4  2  0  0  0  0
  3  2  1  0  0  0  0
  4  6  1  0  0  0  0
  5  4  1  0  0  0  0
  6  8  2  0  0  0  0
  6  7  1  0  0  0  0
  8  9  1  0  0  0  0
 10 11  2  0  0  0  0
 10  8  1  0  0  0  0
 11 12  1  0  0  0  0
 13 15  2  0  0  0  0
 14 15  1  0  0  0  0
 14 11  1  0  0  0  0
 16 13  1  0  0  0  0
 16 17  1  0  0  0  0
 16 18  1  0  0  0  0
 20  3  1  0  0  0  0
 21 20  1  0  0  0  0
M  END
