1,2,3
 OpenBabel05122313063D

 39 41  0  0  1  0  0  0  0  0999 V2000
    2.5014    1.5964   -0.2518 S   0  0  0  0  0  1  0  0  0  0  0  0
   -1.4525    2.1666    0.1530 O   0  5  0  0  0  0  0  0  0  0  0  0
    0.2015   -0.0029   -0.2536 N   0  0  0  0  0  2  0  0  0  0  0  0
    1.2944   -0.8046   -0.4492 N   0  0  0  0  0  0  0  0  0  0  0  0
    3.6002   -0.8470   -0.7348 N   0  0  0  0  0  0  0  0  0  0  0  0
   -2.2611   -0.1021   -0.0301 C   0  0  0  0  0  0  0  0  0  0  0  0
   -2.4396    1.3072    0.1494 C   0  0  0  0  0  0  0  0  0  0  0  0
   -3.7634    1.8309    0.3369 C   0  0  0  0  0  0  0  0  0  0  0  0
   -3.8536    2.9190    0.4707 H   0  0  0  0  0  0  0  0  0  0  0  0
   -4.8650    1.0074    0.3477 C   0  0  0  0  0  0  0  0  0  0  0  0
   -5.8716    1.4308    0.4929 H   0  0  0  0  0  0  0  0  0  0  0  0
   -5.8836   -1.2494    0.1858 C   0  0  0  0  0  0  0  0  0  0  0  0
   -6.8709   -0.7838    0.3342 H   0  0  0  0  0  0  0  0  0  0  0  0
   -5.7712   -2.6233    0.0168 C   0  0  0  0  0  0  0  0  0  0  0  0
   -6.6657   -3.2637    0.0290 H   0  0  0  0  0  0  0  0  0  0  0  0
   -4.4888   -3.1904   -0.1717 C   0  0  0  0  0  0  0  0  0  0  0  0
   -4.3847   -4.2780   -0.3070 H   0  0  0  0  0  0  0  0  0  0  0  0
   -3.3519   -2.3884   -0.1885 C   0  0  0  0  0  0  0  0  0  0  0  0
   -2.3770   -2.8724   -0.3379 H   0  0  0  0  0  0  0  0  0  0  0  0
   -3.4275   -0.9761   -0.0187 C   0  0  1  0  0  3  0  0  0  0  0  0
   -4.7379   -0.4077    0.1726 C   0  0  0  0  0  0  0  0  0  0  0  0
   -0.9587   -0.6513   -0.2192 C   0  0  0  0  0  0  0  0  0  0  0  0
   -0.8464   -1.7375   -0.3584 H   0  0  0  0  0  0  0  0  0  0  0  0
    2.4388   -0.1554   -0.4895 C   0  0  0  0  0  0  0  0  0  0  0  0
    4.9098   -0.2595   -0.4808 C   0  0  0  0  0  0  0  0  0  0  0  0
    4.8328    0.8415   -0.5693 H   0  0  0  0  0  0  0  0  0  0  0  0
    5.6031   -0.6104   -1.2789 H   0  0  0  0  0  0  0  0  0  0  0  0
    5.4396   -0.6839    0.8970 C   0  0  0  0  0  0  0  0  0  0  0  0
    4.7813   -0.2346    1.6724 H   0  0  0  0  0  0  0  0  0  0  0  0
    6.4578   -0.2698    1.0545 H   0  0  0  0  0  0  0  0  0  0  0  0
    5.4441   -2.2144    1.0279 C   0  0  0  0  0  0  0  0  0  0  0  0
    5.7494   -2.5164    2.0514 H   0  0  0  0  0  0  0  0  0  0  0  0
    6.2110   -2.6342    0.3373 H   0  0  0  0  0  0  0  0  0  0  0  0
    4.0728   -2.8104    0.6749 C   0  0  0  0  0  0  0  0  0  0  0  0
    4.1130   -3.9200    0.6778 H   0  0  0  0  0  0  0  0  0  0  0  0
    3.3194   -2.5118    1.4358 H   0  0  0  0  0  0  0  0  0  0  0  0
    3.5937   -2.3102   -0.6952 C   0  0  0  0  0  0  0  0  0  0  0  0
    4.2769   -2.6751   -1.4954 H   0  0  0  0  0  0  0  0  0  0  0  0
    2.5696   -2.6548   -0.9226 H   0  0  0  0  0  0  0  0  0  0  0  0
  3 22  1  0  0  0  0
  4  3  1  0  0  0  0
  5 37  1  0  0  0  0
  5 24  1  0  0  0  0
  5 25  1  0  0  0  0
  6 20  1  0  0  0  0
  6  7  1  0  0  0  0
  7  2  1  0  0  0  0
  7  8  2  0  0  0  0
  8 10  1  0  0  0  0
  8  9  1  0  0  0  0
 10 11  1  0  0  0  0
 12 13  1  0  0  0  0
 14 15  1  0  0  0  0
 14 12  2  0  0  0  0
 16 14  1  0  0  0  0
 17 16  1  0  0  0  0
 18 16  2  0  0  0  0
 19 18  1  0  0  0  0
 20 18  1  1  0  0  0
 20 21  1  0  0  0  0
 21 12  1  0  0  0  0
 21 10  2  0  0  0  0
 22  6  2  0  0  0  0
 23 22  1  0  0  0  0
 24  4  2  0  0  0  0
 24  1  1  0  0  0  0
 25 28  1  0  0  0  0
 26 25  1  0  0  0  0
 27 25  1  0  0  0  0
 28 31  1  0  0  0  0
 28 30  1  0  0  0  0
 28 29  1  0  0  0  0
 31 32  1  0  0  0  0
 33 31  1  0  0  0  0
 34 35  1  0  0  0  0
 34 31  1  0  0  0  0
 34 36  1  0  0  0  0
 37 34  1  0  0  0  0
 38 37  1  0  0  0  0
 39 37  1  0  0  0  0
M  CHG  1   2  -1
M  END
