1,12,18
 OpenBabel05122313063D

 23 23  0  0  0  0  0  0  0  0999 V2000
   -0.2767    2.7872   -0.0117 S   0  0  0  0  0  1  0  0  0  0  0  0
    2.6328   -1.2032    0.2694 C   0  0  0  0  0  0  0  0  0  0  0  0
    3.7290   -0.2852    0.0934 C   0  0  0  0  0  0  0  0  0  0  0  0
    2.8871   -2.6052    0.2118 C   0  0  0  0  0  0  0  0  0  0  0  0
    2.0210   -3.2687    0.3508 H   0  0  0  0  0  0  0  0  0  0  0  0
    5.0209   -0.8425   -0.1432 C   0  0  0  0  0  3  0  0  0  0  0  0
    5.8724   -0.1663   -0.2967 H   0  0  0  0  0  0  0  0  0  0  0  0
    4.1636   -3.1040   -0.0213 C   0  0  0  0  0  0  0  0  0  0  0  0
    4.3258   -4.1922   -0.0682 H   0  0  0  0  0  0  0  0  0  0  0  0
    5.2453   -2.2147   -0.2065 C   0  0  0  0  0  0  0  0  0  0  0  0
    6.2572   -2.5981   -0.4029 H   0  0  0  0  0  0  0  0  0  0  0  0
    1.3960   -0.8336    0.5056 O   0  5  0  0  0  0  0  0  0  0  0  0
    3.5737    1.1608    0.1608 C   0  0  0  0  0  0  0  0  0  0  0  0
    4.8179    2.0156    0.1880 C   0  0  0  0  0  0  0  0  0  0  0  0
    5.2746    2.0753   -0.8230 H   0  0  0  0  0  0  0  0  0  0  0  0
    5.5747    1.5870    0.8712 H   0  0  0  0  0  0  0  0  0  0  0  0
    4.5566    3.0398    0.4985 H   0  0  0  0  0  0  0  0  0  0  0  0
    2.3804    1.7642    0.1686 N   0  0  0  0  0  2  0  0  0  0  0  0
    2.4045    3.1340    0.1740 N   0  0  0  0  0  0  0  0  0  0  0  0
    1.1375    5.0668    0.1298 N   0  0  0  0  0  0  0  0  0  0  0  0
    2.0009    5.5799   -0.0526 H   0  0  0  0  0  0  0  0  0  0  0  0
    0.2710    5.4893   -0.1993 H   0  0  0  0  0  0  0  0  0  0  0  0
    1.2243    3.6988    0.1032 C   0  0  0  0  0  0  0  0  0  0  0  0
  1 23  1  0  0  0  0
  2 12  1  0  0  0  0
  3 13  2  0  0  0  0
  3  2  1  0  0  0  0
  4  2  2  0  0  0  0
  4  5  1  0  0  0  0
  6  3  1  0  0  0  0
  7  6  1  0  0  0  0
  8  4  1  0  0  0  0
  9  8  1  0  0  0  0
 10  6  1  0  0  0  0
 10  8  2  0  0  0  0
 11 10  1  0  0  0  0
 13 18  1  0  0  0  0
 13 14  1  0  0  0  0
 14 17  1  0  0  0  0
 14 16  1  0  0  0  0
 15 14  1  0  0  0  0
 18 19  1  0  0  0  0
 21 20  1  0  0  0  0
 22 20  1  0  0  0  0
 23 20  1  0  0  0  0
 23 19  2  0  0  0  0
M  CHG  1  12  -1
M  END
