1,2,3
 OpenBabel05122313063D

 30 31  0  0  1  0  0  0  0  0999 V2000
   -0.6518    2.1160   -0.5466 S   0  0  0  0  0  1  0  0  0  0  0  0
    2.8218    0.3340   -0.5697 O   0  5  0  0  0  0  0  0  0  0  0  0
    0.3255   -0.5072   -0.0421 N   0  0  0  0  0  2  0  0  0  0  0  0
   -1.0288   -0.5318   -0.0659 N   0  0  0  0  0  2  0  0  0  0  0  0
   -2.9423    0.8080   -0.2728 N   0  0  0  0  0  0  0  0  0  0  0  0
   -3.2313    1.7756   -0.4280 H   0  0  0  0  0  0  0  0  0  0  0  0
   -1.5816    0.6476   -0.2527 C   0  0  2  0  0  3  0  0  0  0  0  0
    0.9053   -1.6863    0.0507 C   0  0  0  0  0  3  0  0  0  0  0  0
    0.2301   -2.5565    0.1502 H   0  0  0  0  0  0  0  0  0  0  0  0
    2.3205   -1.9348    0.0069 C   0  0  0  0  0  0  0  0  0  0  0  0
    3.2507   -0.9014   -0.3317 C   0  0  0  0  0  0  0  0  0  0  0  0
    4.6251   -1.2058   -0.4502 C   0  0  0  0  0  0  0  0  0  0  0  0
    5.3136   -0.3929   -0.7208 H   0  0  0  0  0  0  0  0  0  0  0  0
    5.0771   -2.5080   -0.2212 C   0  0  0  0  0  0  0  0  0  0  0  0
    6.1516   -2.7302   -0.3090 H   0  0  0  0  0  0  0  0  0  0  0  0
    4.1722   -3.5361    0.1195 C   0  0  0  0  0  0  0  0  0  0  0  0
    4.5370   -4.5579    0.2979 H   0  0  0  0  0  0  0  0  0  0  0  0
    2.8122   -3.2492    0.2226 C   0  0  0  0  0  0  0  0  0  0  0  0
    2.0934   -4.0441    0.4760 H   0  0  0  0  0  0  0  0  0  0  0  0
   -3.9963   -0.1051   -0.1084 C   0  0  0  0  0  0  0  0  0  0  0  0
   -3.8139   -1.4864    0.1238 C   0  0  0  0  0  0  0  0  0  0  0  0
   -2.7941   -1.8831    0.1803 H   0  0  0  0  0  0  0  0  0  0  0  0
   -4.9352   -2.3139    0.2754 C   0  0  0  0  0  0  0  0  0  0  0  0
   -4.7802   -3.3887    0.4563 H   0  0  0  0  0  0  0  0  0  0  0  0
   -6.2383   -1.7986    0.2011 C   0  0  0  0  0  0  0  0  0  0  0  0
   -7.1084   -2.4604    0.3222 H   0  0  0  0  0  0  0  0  0  0  0  0
   -6.4173   -0.4247   -0.0302 C   0  0  0  0  0  0  0  0  0  0  0  0
   -7.4304    0.0008   -0.0922 H   0  0  0  0  0  0  0  0  0  0  0  0
   -5.3102    0.4155   -0.1838 C   0  0  0  0  0  0  0  0  0  0  0  0
   -5.4571    1.4927   -0.3652 H   0  0  0  0  0  0  0  0  0  0  0  0
  2 11  1  0  0  0  0
  3  8  1  0  0  0  0
  4  3  1  0  0  0  0
  5  7  1  0  0  0  0
  5 20  1  0  0  0  0
  6  5  1  0  0  0  0
  7  1  1  6  0  0  0
  7  4  1  0  0  0  0
  8  9  1  0  0  0  0
 10  8  1  0  0  0  0
 10 18  1  0  0  0  0
 11 10  2  0  0  0  0
 12 11  1  0  0  0  0
 12 14  2  0  0  0  0
 13 12  1  0  0  0  0
 14 16  1  0  0  0  0
 15 14  1  0  0  0  0
 16 18  2  0  0  0  0
 16 17  1  0  0  0  0
 18 19  1  0  0  0  0
 20 21  1  0  0  0  0
 21 22  1  0  0  0  0
 21 23  2  0  0  0  0
 23 24  1  0  0  0  0
 25 23  1  0  0  0  0
 25 26  1  0  0  0  0
 27 25  2  0  0  0  0
 28 27  1  0  0  0  0
 29 20  2  0  0  0  0
 29 27  1  0  0  0  0
 30 29  1  0  0  0  0
M  CHG  1   2  -1
M  END
