1,3,4
 OpenBabel05122313063D

 28 28  0  0  1  0  0  0  0  0999 V2000
   -3.7553   -2.4136    0.1831 S   0  0  0  0  0  1  0  0  0  0  0  0
    0.4591    2.9402   -0.2756 O   0  0  0  0  0  0  0  0  0  0  0  0
   -1.3338    1.1472   -0.1416 O   0  0  0  0  0  1  0  0  0  0  0  0
   -4.1417    0.4989    0.0795 N   0  0  0  0  0  2  0  0  0  0  0  0
   -5.3011   -0.2357    0.1732 N   0  0  0  0  0  0  0  0  0  0  0  0
   -6.1866    0.2848    0.1962 H   0  0  0  0  0  0  0  0  0  0  0  0
   -6.4232   -2.2721    0.3301 N   0  0  0  0  0  0  0  0  0  0  0  0
   -7.3019   -1.7537    0.3752 H   0  0  0  0  0  0  0  0  0  0  0  0
   -4.2475    1.8133    0.0381 C   0  0  0  0  0  0  0  0  0  0  0  0
   -5.2707    2.2363    0.0849 H   0  0  0  0  0  0  0  0  0  0  0  0
   -3.1815    2.7546   -0.0564 C   0  0  0  0  0  0  0  0  0  0  0  0
   -1.8000    2.3706   -0.1343 C   0  0  2  0  0  3  0  0  0  0  0  0
   -0.8088    3.4177   -0.2143 C   0  0  0  0  0  0  0  0  0  0  0  0
   -1.1822    4.7587   -0.2219 C   0  0  0  0  0  0  0  0  0  0  0  0
   -0.4156    5.5430   -0.2843 H   0  0  0  0  0  0  0  0  0  0  0  0
   -2.5530    5.1216   -0.1494 C   0  0  0  0  0  0  0  0  0  0  0  0
   -2.8297    6.1851   -0.1574 H   0  0  0  0  0  0  0  0  0  0  0  0
   -3.5290    4.1471   -0.0684 C   0  0  0  0  0  0  0  0  0  0  0  0
   -4.5915    4.4267   -0.0098 H   0  0  0  0  0  0  0  0  0  0  0  0
    1.5560    3.8456   -0.3188 C   0  0  0  0  0  0  0  0  0  0  0  0
    1.5650    4.5064    0.5751 H   0  0  0  0  0  0  0  0  0  0  0  0
    1.5252    4.4715   -1.2370 H   0  0  0  0  0  0  0  0  0  0  0  0
    2.4607    3.2109   -0.3257 H   0  0  0  0  0  0  0  0  0  0  0  0
   -5.2643   -1.5900    0.2329 C   0  0  1  0  0  3  0  0  0  0  0  0
   -6.4833   -3.7253    0.3983 C   0  0  0  0  0  0  0  0  0  0  0  0
   -7.5425   -4.0335    0.4453 H   0  0  0  0  0  0  0  0  0  0  0  0
   -5.9571   -4.1047    1.2989 H   0  0  0  0  0  0  0  0  0  0  0  0
   -6.0156   -4.1821   -0.4983 H   0  0  0  0  0  0  0  0  0  0  0  0
  2 13  1  0  0  0  0
  4  5  1  0  0  0  0
  5  6  1  0  0  0  0
  5 24  1  0  0  0  0
  7  8  1  0  0  0  0
  7 25  1  0  0  0  0
  9  4  1  0  0  0  0
  9 10  1  0  0  0  0
 11  9  2  0  0  0  0
 12  3  1  6  0  0  0
 12 11  1  0  0  0  0
 13 12  1  0  0  0  0
 14 13  2  0  0  0  0
 14 16  1  0  0  0  0
 15 14  1  0  0  0  0
 16 18  2  0  0  0  0
 17 16  1  0  0  0  0
 18 11  1  0  0  0  0
 18 19  1  0  0  0  0
 20  2  1  0  0  0  0
 20 21  1  0  0  0  0
 22 20  1  0  0  0  0
 23 20  1  0  0  0  0
 24  1  1  6  0  0  0
 24  7  1  0  0  0  0
 25 26  1  0  0  0  0
 25 27  1  0  0  0  0
 28 25  1  0  0  0  0
M  END
