3,24,27
 OpenBabel05122313063D

 33 35  0  0  1  0  0  0  0  0999 V2000
   -2.6531   -0.0899   -0.3094 C   0  0  0  0  0  0  0  0  0  0  0  0
   -1.9899   -1.0098    0.5740 C   0  0  0  0  0  0  0  0  0  0  0  0
   -0.7588   -0.8053    0.8939 O   0  5  0  0  0  0  0  0  0  0  0  0
   -2.7142   -2.1379    1.1320 C   0  0  0  0  0  0  0  0  0  0  0  0
   -2.0613   -2.9987    2.0475 C   0  0  0  0  0  0  0  0  0  0  0  0
   -1.0188   -2.7694    2.3100 H   0  0  0  0  0  0  0  0  0  0  0  0
   -2.7302   -4.0933    2.5869 C   0  0  0  0  0  0  0  0  0  0  0  0
   -2.2225   -4.7593    3.3006 H   0  0  0  0  0  0  0  0  0  0  0  0
   -4.0666   -4.3426    2.2077 C   0  0  0  0  0  0  0  0  0  0  0  0
   -4.6050   -5.2072    2.6249 H   0  0  0  0  0  0  0  0  0  0  0  0
   -4.7167   -3.5000    1.3048 C   0  0  0  0  0  0  0  0  0  0  0  0
   -5.7576   -3.7245    1.0356 H   0  0  0  0  0  0  0  0  0  0  0  0
   -4.0674   -2.3731    0.7410 C   0  0  0  0  0  0  0  0  0  0  0  0
   -4.7262   -1.4621   -0.2052 C   0  0  0  0  0  0  0  0  0  0  0  0
   -6.0578   -1.6879   -0.6278 C   0  0  0  0  0  0  0  0  0  0  0  0
   -6.6026   -2.5626   -0.2478 H   0  0  0  0  0  0  0  0  0  0  0  0
   -6.7081   -0.8347   -1.5192 C   0  0  0  0  0  0  0  0  0  0  0  0
   -7.7442   -1.0454   -1.8240 H   0  0  0  0  0  0  0  0  0  0  0  0
   -6.0285    0.2900   -2.0206 C   0  0  0  0  0  0  0  0  0  0  0  0
   -6.5288    0.9720   -2.7250 H   0  0  0  0  0  0  0  0  0  0  0  0
   -4.7158    0.5469   -1.6272 C   0  0  0  0  0  0  0  0  0  0  0  0
   -4.1777    1.4217   -2.0066 H   0  0  0  0  0  0  0  0  0  0  0  0
   -4.0318   -0.3103   -0.7233 C   0  0  0  0  0  0  0  0  0  0  0  0
   -1.8156    0.9430   -0.6438 N   0  0  0  0  0  2  0  0  0  0  0  0
   -2.2074    1.9738   -1.3797 N   0  0  0  0  0  2  0  0  0  0  0  0
   -1.2201    2.8488   -1.6190 C   0  0  1  0  0  3  0  0  0  0  0  0
    0.4046    2.6291   -1.0269 S   0  0  0  0  0  1  0  0  0  0  0  0
   -1.5238    3.9408   -2.3649 N   0  0  0  0  0  0  0  0  0  0  0  0
   -2.4819    3.9833   -2.7142 H   0  0  0  0  0  0  0  0  0  0  0  0
   -0.5667    4.9551   -2.7377 C   0  0  0  0  0  0  0  0  0  0  0  0
   -1.0867    5.7640   -3.2827 H   0  0  0  0  0  0  0  0  0  0  0  0
    0.2382    4.5456   -3.3884 H   0  0  0  0  0  0  0  0  0  0  0  0
   -0.0769    5.3865   -1.8382 H   0  0  0  0  0  0  0  0  0  0  0  0
  1  2  1  0  0  0  0
  2  3  1  0  0  0  0
  2  4  2  0  0  0  0
  4  5  1  0  0  0  0
  5  6  1  0  0  0  0
  5  7  2  0  0  0  0
  7  8  1  0  0  0  0
  9  7  1  0  0  0  0
  9 10  1  0  0  0  0
 11  9  2  0  0  0  0
 12 11  1  0  0  0  0
 13  4  1  0  0  0  0
 13 11  1  0  0  0  0
 14 13  2  0  0  0  0
 15 16  1  0  0  0  0
 15 14  1  0  0  0  0
 17 15  2  0  0  0  0
 18 17  1  0  0  0  0
 19 21  2  0  0  0  0
 19 17  1  0  0  0  0
 20 19  1  0  0  0  0
 21 23  1  0  0  0  0
 22 21  1  0  0  0  0
 23  1  2  0  0  0  0
 23 14  1  0  0  0  0
 24  1  1  0  0  0  0
 25 24  1  0  0  0  0
 26 25  1  0  0  0  0
 26 27  1  6  0  0  0
 28 26  1  0  0  0  0
 29 28  1  0  0  0  0
 30 28  1  0  0  0  0
 30 33  1  0  0  0  0
 31 30  1  0  0  0  0
 32 30  1  0  0  0  0
M  CHG  1   3  -1
M  END
