2,3,4
 OpenBabel05122313063D

 34 35  0  0  0  0  0  0  0  0999 V2000
    5.7599    2.3940    0.0663 Br  0  0  0  0  0  0  0  0  0  0  0  0
   -2.5685   -1.8290   -0.3143 S   0  0  0  0  0  0  0  0  0  0  0  0
    1.6760   -2.0815   -0.0314 O   0  5  0  0  0  0  0  0  0  0  0  0
   -0.3526    0.0397   -0.1658 N   0  0  0  0  0  2  0  0  0  0  0  0
   -1.5427    0.7208   -0.2173 N   0  0  0  0  0  0  0  0  0  0  0  0
   -3.8996    0.5242   -0.2439 N   0  0  0  0  0  0  0  0  0  0  0  0
   -4.6319   -0.1664   -0.4166 H   0  0  0  0  0  0  0  0  0  0  0  0
    0.7340    0.7918   -0.1324 C   0  0  0  0  0  0  0  0  0  0  0  0
    0.5550    1.8817   -0.1526 H   0  0  0  0  0  0  0  0  0  0  0  0
    2.0837    0.3377   -0.0657 C   0  0  0  0  0  0  0  0  0  0  0  0
    2.4772   -1.0601   -0.0100 C   0  0  0  0  0  0  0  0  0  0  0  0
    3.8815   -1.3392    0.0754 C   0  0  0  0  0  0  0  0  0  0  0  0
    4.1722   -2.3982    0.1202 H   0  0  0  0  0  0  0  0  0  0  0  0
    4.8345   -0.3343    0.0954 C   0  0  0  0  0  0  0  0  0  0  0  0
    5.9033   -0.5859    0.1577 H   0  0  0  0  0  0  0  0  0  0  0  0
    4.4350    1.0265    0.0363 C   0  0  0  0  0  0  0  0  0  0  0  0
    3.0923    1.3524   -0.0408 C   0  0  0  0  0  3  0  0  0  0  0  0
    2.7834    2.4071   -0.0842 H   0  0  0  0  0  0  0  0  0  0  0  0
   -2.6301    0.0174   -0.2340 C   0  0  0  0  0  0  0  0  0  0  0  0
   -3.2121   -2.2918    1.3405 C   0  0  0  0  0  0  0  0  0  0  0  0
   -2.7473   -1.6653    2.1221 H   0  0  0  0  0  0  0  0  0  0  0  0
   -2.8813   -3.3439    1.4489 H   0  0  0  0  0  0  0  0  0  0  0  0
   -4.3158   -2.2166    1.3532 H   0  0  0  0  0  0  0  0  0  0  0  0
   -4.3584    1.8484   -0.1075 C   0  0  0  0  0  0  0  0  0  0  0  0
   -3.4994    2.9538    0.0678 C   0  0  0  0  0  0  0  0  0  0  0  0
   -2.4152    2.7947    0.0833 H   0  0  0  0  0  0  0  0  0  0  0  0
   -4.0510    4.2352    0.2092 C   0  0  0  0  0  0  0  0  0  0  0  0
   -3.3741    5.0922    0.3459 H   0  0  0  0  0  0  0  0  0  0  0  0
   -5.4387    4.4381    0.1733 C   0  0  0  0  0  0  0  0  0  0  0  0
   -5.8568    5.4493    0.2823 H   0  0  0  0  0  0  0  0  0  0  0  0
   -6.2895    3.3347   -0.0069 C   0  0  0  0  0  0  0  0  0  0  0  0
   -7.3805    3.4740   -0.0396 H   0  0  0  0  0  0  0  0  0  0  0  0
   -5.7575    2.0492   -0.1452 C   0  0  0  0  0  0  0  0  0  0  0  0
   -6.4293    1.1861   -0.2830 H   0  0  0  0  0  0  0  0  0  0  0  0
  2 19  1  0  0  0  0
  2 20  1  0  0  0  0
  3 11  1  0  0  0  0
  4  8  1  0  0  0  0
  5  4  1  0  0  0  0
  6 19  1  0  0  0  0
  6 24  1  0  0  0  0
  7  6  1  0  0  0  0
  8 10  2  0  0  0  0
  9  8  1  0  0  0  0
 10 17  1  0  0  0  0
 10 11  1  0  0  0  0
 11 12  2  0  0  0  0
 12 14  1  0  0  0  0
 12 13  1  0  0  0  0
 14 15  1  0  0  0  0
 16  1  1  0  0  0  0
 16 14  2  0  0  0  0
 17 16  1  0  0  0  0
 18 17  1  0  0  0  0
 19  5  2  0  0  0  0
 20 23  1  0  0  0  0
 20 22  1  0  0  0  0
 20 21  1  0  0  0  0
 24 25  1  0  0  0  0
 25 26  1  0  0  0  0
 25 27  2  0  0  0  0
 27 28  1  0  0  0  0
 29 27  1  0  0  0  0
 29 30  1  0  0  0  0
 31 29  2  0  0  0  0
 32 31  1  0  0  0  0
 33 24  2  0  0  0  0
 33 31  1  0  0  0  0
 34 33  1  0  0  0  0
M  CHG  1   3  -1
M  END
