1,2,3
 OpenBabel05122313063D

 27 27  0  0  1  0  0  0  0  0999 V2000
   -2.4957    0.0962   -0.5895 S   0  0  0  0  0  0  0  0  0  0  0  0
    1.5183   -1.2641   -0.0774 O   0  0  0  0  0  1  0  0  0  0  0  0
    0.1144    1.3099   -0.2135 N   0  0  0  0  0  2  0  0  0  0  0  0
   -0.8595    2.2771   -0.2976 N   0  0  0  0  0  0  0  0  0  0  0  0
   -3.1545    2.7272   -0.3120 N   0  0  0  0  0  0  0  0  0  0  0  0
   -2.9187    3.7229   -0.3056 H   0  0  0  0  0  0  0  0  0  0  0  0
   -3.9824    2.4816   -0.8579 H   0  0  0  0  0  0  0  0  0  0  0  0
    1.3514    1.7548   -0.0824 C   0  0  0  0  0  0  0  0  0  0  0  0
    1.4536    2.8547   -0.0533 H   0  0  0  0  0  0  0  0  0  0  0  0
    2.5336    0.9683    0.0358 C   0  0  0  0  0  0  0  0  0  0  0  0
    2.5522   -0.4858    0.0432 C   0  0  2  0  0  3  0  0  0  0  0  0
    3.8281   -1.1219    0.1966 C   0  0  0  0  0  0  0  0  0  0  0  0
    3.8302   -2.2210    0.2042 H   0  0  0  0  0  0  0  0  0  0  0  0
    4.9987   -0.3898    0.3212 C   0  0  0  0  0  0  0  0  0  0  0  0
    5.9566   -0.9223    0.4316 H   0  0  0  0  0  0  0  0  0  0  0  0
    4.9814    1.0298    0.3092 C   0  0  0  0  0  0  0  0  0  0  0  0
    5.9153    1.6007    0.4099 H   0  0  0  0  0  0  0  0  0  0  0  0
    3.7675    1.6808    0.1708 C   0  0  0  0  0  0  0  0  0  0  0  0
    3.7295    2.7819    0.1619 H   0  0  0  0  0  0  0  0  0  0  0  0
   -2.0841    1.8741   -0.3854 C   0  0  0  0  0  0  0  0  0  0  0  0
   -3.4304   -0.2629    0.9676 C   0  0  0  0  0  0  0  0  0  0  0  0
   -4.4260    0.2102    0.8463 H   0  0  0  0  0  0  0  0  0  0  0  0
   -3.5377   -1.3645    0.8823 H   0  0  0  0  0  0  0  0  0  0  0  0
   -2.7201    0.1455    2.2437 C   0  0  0  0  0  0  0  0  0  0  0  0
   -2.5453    1.2391    2.2858 H   0  0  0  0  0  0  0  0  0  0  0  0
   -1.7466   -0.3772    2.3285 H   0  0  0  0  0  0  0  0  0  0  0  0
   -3.3448   -0.1342    3.1167 H   0  0  0  0  0  0  0  0  0  0  0  0
  1 20  1  0  0  0  0
  1 21  1  0  0  0  0
  3  8  1  0  0  0  0
  4  3  1  0  0  0  0
  5  6  1  0  0  0  0
  7  5  1  0  0  0  0
  8  9  1  0  0  0  0
  8 10  2  0  0  0  0
 10 11  1  0  0  0  0
 10 18  1  0  0  0  0
 11  2  1  6  0  0  0
 11 12  1  0  0  0  0
 12 13  1  0  0  0  0
 12 14  2  0  0  0  0
 14 15  1  0  0  0  0
 16 14  1  0  0  0  0
 16 17  1  0  0  0  0
 18 16  2  0  0  0  0
 19 18  1  0  0  0  0
 20  5  1  0  0  0  0
 20  4  2  0  0  0  0
 21 24  1  0  0  0  0
 22 21  1  0  0  0  0
 23 21  1  0  0  0  0
 24 25  1  0  0  0  0
 24 26  1  0  0  0  0
 24 27  1  0  0  0  0
M  END
