1,3,6
 OpenBabel05122313063D

 30 31  0  0  1  0  0  0  0  0999 V2000
    0.1820   -1.9329   -0.1955 S   0  0  0  0  0  1  0  0  0  0  0  0
    7.9140    0.7665    0.0697 F   0  0  0  0  0  0  0  0  0  0  0  0
   -2.7734    0.7925   -0.0202 O   0  0  0  0  0  1  0  0  0  0  0  0
    2.7776   -1.3473   -0.1083 N   0  0  0  0  0  0  0  0  0  0  0  0
    1.3248    0.5011   -0.0019 N   0  0  0  0  0  0  0  0  0  0  0  0
   -0.0017    0.8542    0.0039 N   0  0  0  0  0  2  0  0  0  0  0  0
    4.0483   -0.7583   -0.0609 C   0  0  0  0  0  0  0  0  0  0  0  0
    5.1693   -1.6213   -0.1141 C   0  0  0  0  0  0  0  0  0  0  0  0
    6.4713   -1.1136   -0.0705 C   0  0  0  0  0  0  0  0  0  0  0  0
    6.6602    0.2706    0.0272 C   0  0  0  0  0  0  0  0  0  0  0  0
    5.5677    1.1425    0.0810 C   0  0  0  0  0  0  0  0  0  0  0  0
    4.2622    0.6357    0.0375 C   0  0  0  0  0  0  0  0  0  0  0  0
    1.5193   -0.7924   -0.0852 C   0  0  0  0  0  0  0  0  0  0  0  0
   -0.2133    2.1618    0.0499 C   0  0  0  0  0  0  0  0  0  0  0  0
   -1.4737    2.8279    0.0634 C   0  0  0  0  0  0  0  0  0  0  0  0
   -1.5039    4.2519    0.1122 C   0  0  0  0  0  0  0  0  0  0  0  0
   -2.7033    4.9529    0.1204 C   0  0  0  0  0  0  0  0  0  0  0  0
   -3.9229    4.2334    0.0800 C   0  0  0  0  0  0  0  0  0  0  0  0
   -3.9311    2.8429    0.0345 C   0  0  0  0  0  0  0  0  0  0  0  0
   -2.7148    2.0978    0.0242 C   0  0  1  0  0  3  0  0  0  0  0  0
    2.7733   -2.3656   -0.1767 H   0  0  0  0  0  0  0  0  0  0  0  0
    5.0154   -2.7097   -0.1915 H   0  0  0  0  0  0  0  0  0  0  0  0
    7.3452   -1.7792   -0.1117 H   0  0  0  0  0  0  0  0  0  0  0  0
    5.7483    2.2245    0.1574 H   0  0  0  0  0  0  0  0  0  0  0  0
    3.3912    1.3002    0.0782 H   0  0  0  0  0  0  0  0  0  0  0  0
    0.7025    2.7779    0.0813 H   0  0  0  0  0  0  0  0  0  0  0  0
   -0.5444    4.7924    0.1420 H   0  0  0  0  0  0  0  0  0  0  0  0
   -2.7067    6.0518    0.1580 H   0  0  0  0  0  0  0  0  0  0  0  0
   -4.8796    4.7791    0.0867 H   0  0  0  0  0  0  0  0  0  0  0  0
   -4.8716    2.2733    0.0079 H   0  0  0  0  0  0  0  0  0  0  0  0
  1 13  1  0  0  0  0
  4 13  1  0  0  0  0
  4  7  1  0  0  0  0
  5  6  1  0  0  0  0
  6 14  1  0  0  0  0
  7 12  1  0  0  0  0
  8  9  1  0  0  0  0
  8  7  2  0  0  0  0
  9 10  2  0  0  0  0
 10  2  1  0  0  0  0
 10 11  1  0  0  0  0
 11 24  1  0  0  0  0
 12 25  1  0  0  0  0
 12 11  2  0  0  0  0
 13  5  2  0  0  0  0
 14 15  2  0  0  0  0
 14 26  1  0  0  0  0
 15 16  1  0  0  0  0
 16 17  2  0  0  0  0
 16 27  1  0  0  0  0
 17 28  1  0  0  0  0
 18 29  1  0  0  0  0
 18 17  1  0  0  0  0
 19 18  2  0  0  0  0
 20  3  1  6  0  0  0
 20 19  1  0  0  0  0
 20 15  1  0  0  0  0
 21  4  1  0  0  0  0
 22  8  1  0  0  0  0
 23  9  1  0  0  0  0
 30 19  1  0  0  0  0
M  END
