1,5,42
 OpenBabel05122313063D

 42 43  0  0  1  0  0  0  0  0999 V2000
    1.6637   -1.6538   -0.4864 S   0  0  0  0  0  1  0  0  0  0  0  0
    2.3388   -0.1057    0.1426 C   0  0  2  0  0  3  0  0  0  0  0  0
    1.7131    1.0466    0.0679 N   0  0  0  0  0  2  0  0  0  0  0  0
    0.4018    1.3016    0.0083 C   0  0  1  0  0  3  0  0  0  0  0  0
   -0.5541    0.4021    0.4033 N   0  0  0  0  0  2  0  0  0  0  0  0
    0.0072    2.6411   -0.4890 C   0  0  0  0  0  0  0  0  0  0  0  0
    0.9190    3.7188   -0.4265 C   0  0  0  0  0  0  0  0  0  0  0  0
    1.9026    3.5492    0.0339 H   0  0  0  0  0  0  0  0  0  0  0  0
    0.5659    4.9762   -0.9311 C   0  0  0  0  0  0  0  0  0  0  0  0
    1.2799    5.8114   -0.8677 H   0  0  0  0  0  0  0  0  0  0  0  0
   -0.6964    5.1720   -1.5158 C   0  0  0  0  0  0  0  0  0  0  0  0
   -0.9733    6.1601   -1.9138 H   0  0  0  0  0  0  0  0  0  0  0  0
   -1.6025    4.1005   -1.5977 C   0  0  0  0  0  0  0  0  0  0  0  0
   -2.5855    4.2440   -2.0705 H   0  0  0  0  0  0  0  0  0  0  0  0
   -1.2580    2.8445   -1.0869 C   0  0  0  0  0  0  0  0  0  0  0  0
   -1.9616    2.0041   -1.1697 H   0  0  0  0  0  0  0  0  0  0  0  0
    3.5761   -0.1560    0.6989 N   0  0  0  0  0  0  0  0  0  0  0  0
    4.1384    1.0457    1.3258 C   0  0  0  0  0  0  0  0  0  0  0  0
    4.8151    0.7078    2.1381 H   0  0  0  0  0  0  0  0  0  0  0  0
    3.3095    1.6049    1.8004 H   0  0  0  0  0  0  0  0  0  0  0  0
    4.8816    1.9374    0.3310 C   0  0  0  0  0  0  0  0  0  0  0  0
    5.3036    2.8228    0.8475 H   0  0  0  0  0  0  0  0  0  0  0  0
    4.1908    2.2891   -0.4598 H   0  0  0  0  0  0  0  0  0  0  0  0
    5.7192    1.3957   -0.1535 H   0  0  0  0  0  0  0  0  0  0  0  0
    4.4152   -1.3576    0.6711 C   0  0  0  0  0  0  0  0  0  0  0  0
    5.4659   -1.0176    0.5556 H   0  0  0  0  0  0  0  0  0  0  0  0
    4.1716   -1.9392   -0.2392 H   0  0  0  0  0  0  0  0  0  0  0  0
    4.2573   -2.2258    1.9190 C   0  0  0  0  0  0  0  0  0  0  0  0
    4.9388   -3.0982    1.8690 H   0  0  0  0  0  0  0  0  0  0  0  0
    3.2185   -2.6023    1.9971 H   0  0  0  0  0  0  0  0  0  0  0  0
    4.4957   -1.6589    2.8418 H   0  0  0  0  0  0  0  0  0  0  0  0
   -1.6912    0.7028    1.1779 C   0  0  0  0  0  0  0  0  0  0  0  0
   -1.9374    1.8469    1.9544 C   0  0  0  0  0  0  0  0  0  0  0  0
   -1.2062    2.6670    1.9814 H   0  0  0  0  0  0  0  0  0  0  0  0
   -3.1336    1.9232    2.6862 C   0  0  0  0  0  0  0  0  0  0  0  0
   -3.3423    2.8190    3.2896 H   0  0  0  0  0  0  0  0  0  0  0  0
   -4.0592    0.8636    2.6586 C   0  0  0  0  0  0  0  0  0  0  0  0
   -4.9916    0.9366    3.2384 H   0  0  0  0  0  0  0  0  0  0  0  0
   -3.8004   -0.2976    1.9108 C   0  0  0  0  0  0  0  0  0  0  0  0
   -4.4991   -1.1462    1.8917 H   0  0  0  0  0  0  0  0  0  0  0  0
   -2.6065   -0.3766    1.1791 C   0  0  0  0  0  0  0  0  0  0  0  0
   -2.2383   -1.4686    0.4682 O   0  5  0  0  0  0  0  0  0  0  0  0
  2  1  1  6  0  0  0
  2 17  1  0  0  0  0
  3  2  1  0  0  0  0
  4  3  1  1  0  0  0
  4  5  1  0  0  0  0
  5 32  1  0  0  0  0
  6  7  1  0  0  0  0
  6  4  1  0  0  0  0
  7  8  1  0  0  0  0
  9 10  1  0  0  0  0
  9  7  2  0  0  0  0
 11  9  1  0  0  0  0
 12 11  1  0  0  0  0
 13 11  2  0  0  0  0
 13 15  1  0  0  0  0
 14 13  1  0  0  0  0
 15  6  2  0  0  0  0
 16 15  1  0  0  0  0
 17 18  1  0  0  0  0
 18 20  1  0  0  0  0
 18 19  1  0  0  0  0
 21 22  1  0  0  0  0
 21 18  1  0  0  0  0
 23 21  1  0  0  0  0
 24 21  1  0  0  0  0
 25 17  1  0  0  0  0
 25 28  1  0  0  0  0
 26 25  1  0  0  0  0
 27 25  1  0  0  0  0
 28 30  1  0  0  0  0
 28 31  1  0  0  0  0
 29 28  1  0  0  0  0
 32 41  2  0  0  0  0
 32 33  1  0  0  0  0
 33 34  1  0  0  0  0
 33 35  2  0  0  0  0
 35 36  1  0  0  0  0
 37 35  1  0  0  0  0
 37 38  1  0  0  0  0
 39 37  2  0  0  0  0
 40 39  1  0  0  0  0
 41 39  1  0  0  0  0
 42 41  1  0  0  0  0
M  CHG  1  42  -1
M  END
