1,2,7
 OpenBabel05122313063D

 34 35  0  0  1  0  0  0  0  0999 V2000
   -1.4493    2.1334   -0.5560 S   0  0  0  0  0  1  0  0  0  0  0  0
    2.2174    0.7676   -0.4845 O   0  5  0  0  0  0  0  0  0  0  0  0
    6.1163   -2.0083   -0.1217 O   0  0  0  0  0  0  0  0  0  0  0  0
   -3.5806    0.5717   -0.3094 N   0  0  0  0  0  0  0  0  0  0  0  0
   -3.9758    1.4973   -0.4837 H   0  0  0  0  0  0  0  0  0  0  0  0
   -1.5253   -0.5309   -0.0440 N   0  0  0  0  0  2  0  0  0  0  0  0
   -0.1816   -0.3438    0.0048 N   0  0  0  0  0  2  0  0  0  0  0  0
   -2.2094    0.5693   -0.2591 C   0  0  1  0  0  3  0  0  0  0  0  0
    0.5311   -1.4477    0.1241 C   0  0  0  0  0  3  0  0  0  0  0  0
   -0.0429   -2.3876    0.2255 H   0  0  0  0  0  0  0  0  0  0  0  0
    1.9605   -1.5337    0.1088 C   0  0  0  0  0  0  0  0  0  0  0  0
    2.7774   -0.4075   -0.2233 C   0  0  0  0  0  0  0  0  0  0  0  0
    4.1794   -0.5404   -0.3157 C   0  0  0  0  0  0  0  0  0  0  0  0
    4.7552    0.3543   -0.5809 H   0  0  0  0  0  0  0  0  0  0  0  0
    4.7812   -1.7854   -0.0670 C   0  0  0  0  0  0  0  0  0  0  0  0
    3.9834   -2.9131    0.2666 C   0  0  0  0  0  0  0  0  0  0  0  0
    4.4858   -3.8720    0.4531 H   0  0  0  0  0  0  0  0  0  0  0  0
    2.6058   -2.7801    0.3422 C   0  0  0  0  0  0  0  0  0  0  0  0
    1.9853   -3.6550    0.5906 H   0  0  0  0  0  0  0  0  0  0  0  0
   -4.5233   -0.4557   -0.1533 C   0  0  0  0  0  0  0  0  0  0  0  0
   -4.1846   -1.8029    0.1040 C   0  0  0  0  0  0  0  0  0  0  0  0
   -3.1263   -2.0748    0.1877 H   0  0  0  0  0  0  0  0  0  0  0  0
   -5.2034   -2.7555    0.2453 C   0  0  0  0  0  0  0  0  0  0  0  0
   -4.9263   -3.8019    0.4461 H   0  0  0  0  0  0  0  0  0  0  0  0
   -6.5564   -2.3996    0.1359 C   0  0  0  0  0  0  0  0  0  0  0  0
   -7.3447   -3.1583    0.2492 H   0  0  0  0  0  0  0  0  0  0  0  0
   -6.8910   -1.0596   -0.1204 C   0  0  0  0  0  0  0  0  0  0  0  0
   -7.9456   -0.7579   -0.2102 H   0  0  0  0  0  0  0  0  0  0  0  0
   -5.8879   -0.0961   -0.2640 C   0  0  0  0  0  0  0  0  0  0  0  0
   -6.1570    0.9537   -0.4651 H   0  0  0  0  0  0  0  0  0  0  0  0
    6.9717   -0.9272   -0.4528 C   0  0  0  0  0  0  0  0  0  0  0  0
    8.0013   -1.3292   -0.4398 H   0  0  0  0  0  0  0  0  0  0  0  0
    6.8939   -0.1003    0.2873 H   0  0  0  0  0  0  0  0  0  0  0  0
    6.7507   -0.5234   -1.4655 H   0  0  0  0  0  0  0  0  0  0  0  0
  2 12  1  0  0  0  0
  3 15  1  0  0  0  0
  4  8  1  0  0  0  0
  4 20  1  0  0  0  0
  5  4  1  0  0  0  0
  6  7  1  0  0  0  0
  7  9  1  0  0  0  0
  8  1  1  6  0  0  0
  8  6  1  0  0  0  0
  9 10  1  0  0  0  0
 11  9  1  0  0  0  0
 11 18  1  0  0  0  0
 12 11  2  0  0  0  0
 13 12  1  0  0  0  0
 13 15  2  0  0  0  0
 14 13  1  0  0  0  0
 15 16  1  0  0  0  0
 16 18  2  0  0  0  0
 16 17  1  0  0  0  0
 18 19  1  0  0  0  0
 20 21  1  0  0  0  0
 21 22  1  0  0  0  0
 21 23  2  0  0  0  0
 23 24  1  0  0  0  0
 25 23  1  0  0  0  0
 25 26  1  0  0  0  0
 27 25  2  0  0  0  0
 28 27  1  0  0  0  0
 29 20  2  0  0  0  0
 29 27  1  0  0  0  0
 30 29  1  0  0  0  0
 31 32  1  0  0  0  0
 31  3  1  0  0  0  0
 31 33  1  0  0  0  0
 34 31  1  0  0  0  0
M  CHG  1   2  -1
M  END
