1,2,5
 OpenBabel05122313063D

 24 24  0  0  0  0  0  0  0  0999 V2000
    0.5577    1.6017   -0.3265 S   0  0  0  0  0  0  0  0  0  0  0  0
   -0.2052   -2.3394    0.6786 O   0  0  0  0  0  1  0  0  0  0  0  0
    0.9692   -2.9100    0.4673 N   0  0  0  0  0  0  0  0  0  0  0  0
    2.0255   -2.2584    0.1143 N   0  0  0  0  0  2  0  0  0  0  0  0
    1.7575   -0.9732   -0.0003 N   0  0  0  0  0  2  0  0  0  0  0  0
    1.0222   -4.3514    0.6225 C   0  0  0  0  0  0  0  0  0  0  0  0
    2.7198   -0.0984   -0.4703 C   0  0  0  0  0  0  0  0  0  0  0  0
    4.0662   -0.4274   -0.7578 C   0  0  0  0  0  0  0  0  0  0  0  0
    4.9327    0.5604   -1.2353 C   0  0  0  0  0  0  0  0  0  0  0  0
    4.4940    1.8832   -1.4437 C   0  0  0  0  0  0  0  0  0  0  0  0
    3.1588    2.2196   -1.1720 C   0  0  0  0  0  0  0  0  0  0  0  0
    2.2894    1.2384   -0.6822 C   0  0  0  0  0  0  0  0  0  0  0  0
    0.7362    2.4897    1.2220 C   0  0  0  0  0  0  0  0  0  0  0  0
   -0.1299    3.4667    1.5365 C   0  0  0  0  0  0  0  0  0  0  0  0
    2.0568   -4.6865    0.4391 H   0  0  0  0  0  0  0  0  0  0  0  0
    0.6995   -4.6151    1.6489 H   0  0  0  0  0  0  0  0  0  0  0  0
    0.3244   -4.8142   -0.1031 H   0  0  0  0  0  0  0  0  0  0  0  0
    4.4028   -1.4608   -0.5991 H   0  0  0  0  0  0  0  0  0  0  0  0
    5.9777    0.2938   -1.4560 H   0  0  0  0  0  0  0  0  0  0  0  0
    5.1873    2.6470   -1.8243 H   0  0  0  0  0  0  0  0  0  0  0  0
    2.7879    3.2425   -1.3369 H   0  0  0  0  0  0  0  0  0  0  0  0
    1.5395    2.1341    1.8850 H   0  0  0  0  0  0  0  0  0  0  0  0
   -0.0617    3.9839    2.5067 H   0  0  0  0  0  0  0  0  0  0  0  0
   -0.9349    3.7709    0.8482 H   0  0  0  0  0  0  0  0  0  0  0  0
  1 13  1  0  0  0  0
  3  6  1  0  0  0  0
  3  2  1  0  0  0  0
  4  3  1  0  0  0  0
  5  4  1  0  0  0  0
  6 16  1  0  0  0  0
  7  5  1  0  0  0  0
  8 18  1  0  0  0  0
  8  7  2  0  0  0  0
  9  8  1  0  0  0  0
 10  9  2  0  0  0  0
 10 11  1  0  0  0  0
 11 12  2  0  0  0  0
 12  7  1  0  0  0  0
 12  1  1  0  0  0  0
 13 14  2  0  0  0  0
 13 22  1  0  0  0  0
 14 23  1  0  0  0  0
 15  6  1  0  0  0  0
 17  6  1  0  0  0  0
 19  9  1  0  0  0  0
 20 10  1  0  0  0  0
 21 11  1  0  0  0  0
 24 14  1  0  0  0  0
M  END
