1,2,6
 OpenBabel05122313063D

 28 28  0  0  1  0  0  0  0  0999 V2000
    1.6595    0.7507    0.1099 S   0  0  0  0  0  1  0  0  0  0  0  0
    1.7618   -2.0399   -0.0498 N   0  0  0  0  0  2  0  0  0  0  0  0
    3.0304   -1.5447   -0.0531 N   0  0  0  0  0  0  0  0  0  0  0  0
    3.1154   -0.2410    0.0121 C   0  0  0  0  0  0  0  0  0  0  0  0
    4.4431    0.4060    0.0157 C   0  0  0  0  0  0  0  0  0  0  0  0
   -1.0482   -2.2294    0.0369 O   0  5  0  0  0  0  0  0  0  0  0  0
    4.5773    1.8114    0.0829 C   0  0  0  0  0  0  0  0  0  0  0  0
    3.6709    2.4340    0.1338 H   0  0  0  0  0  0  0  0  0  0  0  0
    1.6776   -3.3872   -0.0845 C   0  0  2  0  0  3  0  0  0  0  0  0
    5.6166   -0.3829   -0.0502 C   0  0  0  0  0  0  0  0  0  0  0  0
    5.5068   -1.4751   -0.1021 H   0  0  0  0  0  0  0  0  0  0  0  0
    0.4459   -4.0850   -0.0535 C   0  0  0  0  0  0  0  0  0  0  0  0
    0.5029   -5.1812   -0.0752 H   0  0  0  0  0  0  0  0  0  0  0  0
    5.8444    2.4093    0.0848 C   0  0  0  0  0  0  0  0  0  0  0  0
    5.9282    3.5057    0.1383 H   0  0  0  0  0  0  0  0  0  0  0  0
   -0.8265   -3.5056    0.0146 C   0  0  0  0  0  0  0  0  0  0  0  0
    6.8798    0.2182   -0.0489 C   0  0  0  0  0  0  0  0  0  0  0  0
    7.7820   -0.4108   -0.1010 H   0  0  0  0  0  0  0  0  0  0  0  0
    7.0018    1.6173    0.0187 C   0  0  0  0  0  0  0  0  0  0  0  0
    7.9968    2.0880    0.0199 H   0  0  0  0  0  0  0  0  0  0  0  0
   -2.0742   -4.3531    0.0705 C   0  0  0  0  0  0  0  0  0  0  0  0
   -1.8516   -5.4357    0.0485 H   0  0  0  0  0  0  0  0  0  0  0  0
   -2.7395   -4.1002   -0.7813 H   0  0  0  0  0  0  0  0  0  0  0  0
   -2.6428   -4.1156    0.9937 H   0  0  0  0  0  0  0  0  0  0  0  0
    2.9564   -4.1816   -0.1497 C   0  0  0  0  0  0  0  0  0  0  0  0
    2.7438   -5.2655   -0.1875 H   0  0  0  0  0  0  0  0  0  0  0  0
    3.5968   -3.9581    0.7269 H   0  0  0  0  0  0  0  0  0  0  0  0
    3.5515   -3.8861   -1.0366 H   0  0  0  0  0  0  0  0  0  0  0  0
  3  2  1  0  0  0  0
  3  4  2  0  0  0  0
  4  5  1  0  0  0  0
  4  1  1  0  0  0  0
  5  7  1  0  0  0  0
  7 14  2  0  0  0  0
  7  8  1  0  0  0  0
  9 12  1  1  0  0  0
  9  2  1  0  0  0  0
 10 17  1  0  0  0  0
 10  5  2  0  0  0  0
 11 10  1  0  0  0  0
 12 16  2  0  0  0  0
 13 12  1  0  0  0  0
 14 15  1  0  0  0  0
 16  6  1  0  0  0  0
 16 21  1  0  0  0  0
 17 19  2  0  0  0  0
 18 17  1  0  0  0  0
 19 20  1  0  0  0  0
 19 14  1  0  0  0  0
 21 24  1  0  0  0  0
 22 21  1  0  0  0  0
 23 21  1  0  0  0  0
 25  9  1  0  0  0  0
 25 27  1  0  0  0  0
 26 25  1  0  0  0  0
 28 25  1  0  0  0  0
M  CHG  1   6  -1
M  END
