1,2,3
 OpenBabel05122313063D

 31 31  0  0  1  0  0  0  0  0999 V2000
    0.3306    0.6683    1.2438 S   0  0  0  0  0  0  0  0  0  0  0  0
   -1.3511    0.9954   -1.4853 O   0  5  0  0  0  0  0  0  0  0  0  0
   -2.8254    1.1049    0.7572 N   0  0  0  0  0  0  0  0  0  0  0  0
    4.5212   -0.9664    0.4915 N   0  0  0  0  0  0  0  0  0  0  0  0
    5.6128   -1.5608   -0.0083 C   0  0  0  0  0  0  0  0  0  0  0  0
    6.6184   -0.8720   -0.7074 C   0  0  0  0  0  0  0  0  0  0  0  0
    6.4663    0.5085   -0.8930 C   0  0  0  0  0  0  0  0  0  0  0  0
    5.3251    1.1379   -0.3752 C   0  0  0  0  0  0  0  0  0  0  0  0
    4.3761    0.3616    0.3173 C   0  0  0  0  0  0  0  0  0  0  0  0
    3.1169    0.9688    0.9052 C   0  0  0  0  0  0  0  0  0  0  0  0
    1.8805    0.2558    0.3554 C   0  0  0  0  0  0  0  0  0  0  0  0
    0.1728    2.4475    0.7905 C   0  0  0  0  0  0  0  0  0  0  0  0
   -1.2272    3.0134    1.0375 C   0  0  0  0  0  0  0  0  0  0  0  0
   -2.3586    2.4008    0.1909 C   0  0  1  0  0  0  0  0  0  0  0  0
   -1.8093    2.1965   -1.2529 C   0  0  0  0  0  0  0  0  0  0  0  0
   -1.7432    3.1642   -2.0007 O   0  0  0  0  0  0  0  0  0  0  0  0
    5.6941   -2.6505    0.1542 H   0  0  0  0  0  0  0  0  0  0  0  0
    7.4947   -1.4097   -1.0983 H   0  0  0  0  0  0  0  0  0  0  0  0
    7.2247    1.0903   -1.4388 H   0  0  0  0  0  0  0  0  0  0  0  0
    5.1688    2.2195   -0.5051 H   0  0  0  0  0  0  0  0  0  0  0  0
    3.1427    0.8422    2.0091 H   0  0  0  0  0  0  0  0  0  0  0  0
    3.0869    2.0558    0.6926 H   0  0  0  0  0  0  0  0  0  0  0  0
    2.0033   -0.8378    0.4854 H   0  0  0  0  0  0  0  0  0  0  0  0
    1.7143    0.4591   -0.7220 H   0  0  0  0  0  0  0  0  0  0  0  0
    0.9164    2.9984    1.3993 H   0  0  0  0  0  0  0  0  0  0  0  0
    0.4470    2.5493   -0.2790 H   0  0  0  0  0  0  0  0  0  0  0  0
   -1.1804    4.0893    0.7741 H   0  0  0  0  0  0  0  0  0  0  0  0
   -1.4867    2.9657    2.1190 H   0  0  0  0  0  0  0  0  0  0  0  0
   -3.1971    3.1248    0.1486 H   0  0  0  0  0  0  0  0  0  0  0  0
   -3.7852    0.9154    0.4404 H   0  0  0  0  0  0  0  0  0  0  0  0
   -2.8745    1.1446    1.7852 H   0  0  0  0  0  0  0  0  0  0  0  0
  2 15  1  0  0  0  0
  3 31  1  0  0  0  0
  5 17  1  0  0  0  0
  5  4  2  0  0  0  0
  6  5  1  0  0  0  0
  7  6  2  0  0  0  0
  7  8  1  0  0  0  0
  8  9  2  0  0  0  0
  9  4  1  0  0  0  0
  9 10  1  0  0  0  0
 10 21  1  0  0  0  0
 11 23  1  0  0  0  0
 11 10  1  0  0  0  0
 11  1  1  0  0  0  0
 12 13  1  0  0  0  0
 12  1  1  0  0  0  0
 12 25  1  0  0  0  0
 13 28  1  0  0  0  0
 14 29  1  6  0  0  0
 14  3  1  0  0  0  0
 14 13  1  0  0  0  0
 15 14  1  0  0  0  0
 16 15  2  0  0  0  0
 18  6  1  0  0  0  0
 19  7  1  0  0  0  0
 20  8  1  0  0  0  0
 22 10  1  0  0  0  0
 24 11  1  0  0  0  0
 26 12  1  0  0  0  0
 27 13  1  0  0  0  0
 30  3  1  0  0  0  0
M  CHG  1   2  -1
M  END
