1,2,3
 OpenBabel05122313063D

 29 30  0  0  0  0  0  0  0  0999 V2000
    1.3225   -0.7290    2.4761 S   0  0  0  0  0  1  0  0  0  0  0  0
    0.1909   -2.1482    0.2205 N   0  0  0  0  0  2  0  0  0  0  0  0
   -1.5445   -0.2403   -0.4530 O   0  5  0  0  0  0  0  0  0  0  0  0
   -5.8925   -1.5409   -1.9820 O   0  0  0  0  0  0  0  0  0  0  0  0
    2.1357   -2.0499    1.6332 C   0  0  0  0  0  0  0  0  0  0  0  0
    3.4076   -2.5270    2.0083 C   0  0  0  0  0  0  0  0  0  0  0  0
    3.9228   -2.0539    2.8576 H   0  0  0  0  0  0  0  0  0  0  0  0
    4.0085   -3.5814    1.3045 C   0  0  0  0  0  0  0  0  0  0  0  0
    5.0066   -3.9356    1.6051 H   0  0  0  0  0  0  0  0  0  0  0  0
    3.3517   -4.1756    0.2124 C   0  0  0  0  0  0  0  0  0  0  0  0
    3.8354   -4.9844   -0.3552 H   0  0  0  0  0  0  0  0  0  0  0  0
    2.0805   -3.7195   -0.1676 C   0  0  0  0  0  0  0  0  0  0  0  0
    1.5764   -4.1522   -1.0451 H   0  0  0  0  0  0  0  0  0  0  0  0
    1.4647   -2.6726    0.5443 C   0  0  0  0  0  0  0  0  0  0  0  0
   -0.7557   -2.9511   -0.2158 C   0  0  0  0  0  3  0  0  0  0  0  0
   -0.5420   -4.0399   -0.2357 H   0  0  0  0  0  0  0  0  0  0  0  0
   -2.0590   -2.5570   -0.6561 C   0  0  0  0  0  0  0  0  0  0  0  0
   -3.0244   -3.5346   -1.0261 C   0  0  0  0  0  0  0  0  0  0  0  0
   -2.7530   -4.5995   -0.9505 H   0  0  0  0  0  0  0  0  0  0  0  0
   -4.2874   -3.1760   -1.4673 C   0  0  0  0  0  0  0  0  0  0  0  0
   -5.0424   -3.9237   -1.7452 H   0  0  0  0  0  0  0  0  0  0  0  0
   -4.6330   -1.7977   -1.5613 C   0  0  0  0  0  0  0  0  0  0  0  0
   -3.7002   -0.8035   -1.2253 C   0  0  0  0  0  0  0  0  0  0  0  0
   -3.9243    0.2688   -1.2787 H   0  0  0  0  0  0  0  0  0  0  0  0
   -2.4162   -1.1722   -0.7663 C   0  0  0  0  0  0  0  0  0  0  0  0
   -6.3099   -0.1879   -2.0858 C   0  0  0  0  0  0  0  0  0  0  0  0
   -7.3606   -0.2124   -2.4277 H   0  0  0  0  0  0  0  0  0  0  0  0
   -5.6974    0.3735   -2.8250 H   0  0  0  0  0  0  0  0  0  0  0  0
   -6.2542    0.3340   -1.1055 H   0  0  0  0  0  0  0  0  0  0  0  0
  2 14  1  0  0  0  0
  4 22  1  0  0  0  0
  5  6  1  0  0  0  0
  5  1  1  0  0  0  0
  6  7  1  0  0  0  0
  8  9  1  0  0  0  0
  8  6  2  0  0  0  0
 10  8  1  0  0  0  0
 11 10  1  0  0  0  0
 12 10  2  0  0  0  0
 12 14  1  0  0  0  0
 13 12  1  0  0  0  0
 14  5  2  0  0  0  0
 15  2  1  0  0  0  0
 16 15  1  0  0  0  0
 17 15  1  0  0  0  0
 18 19  1  0  0  0  0
 18 17  2  0  0  0  0
 20 18  1  0  0  0  0
 21 20  1  0  0  0  0
 22 20  2  0  0  0  0
 22 23  1  0  0  0  0
 23 25  2  0  0  0  0
 24 23  1  0  0  0  0
 25 17  1  0  0  0  0
 25  3  1  0  0  0  0
 26  4  1  0  0  0  0
 26 29  1  0  0  0  0
 27 26  1  0  0  0  0
 28 26  1  0  0  0  0
M  CHG  1   3  -1
M  END
