1,5,42
 OpenBabel05122313063D

 42 43  0  0  1  0  0  0  0  0999 V2000
    2.3688   -0.3565   -0.6948 S   0  0  0  0  0  1  0  0  0  0  0  0
    1.8678    1.2813   -0.2044 C   0  0  2  0  0  3  0  0  0  0  0  0
    0.6286    1.7384   -0.3030 N   0  0  0  0  0  0  0  0  0  0  0  0
   -0.5118    1.0627   -0.2251 C   0  0  0  0  0  0  0  0  0  0  0  0
   -0.5923   -0.2235    0.2367 N   0  0  0  0  0  2  0  0  0  0  0  0
   -1.7398    1.7676   -0.6714 C   0  0  0  0  0  0  0  0  0  0  0  0
   -1.8074    3.1768   -0.6253 C   0  0  0  0  0  0  0  0  0  0  0  0
   -0.9545    3.7332   -0.2116 H   0  0  0  0  0  0  0  0  0  0  0  0
   -2.9479    3.8444   -1.0882 C   0  0  0  0  0  0  0  0  0  0  0  0
   -2.9985    4.9424   -1.0371 H   0  0  0  0  0  0  0  0  0  0  0  0
   -4.0246    3.1135   -1.6174 C   0  0  0  0  0  0  0  0  0  0  0  0
   -4.9198    3.6386   -1.9837 H   0  0  0  0  0  0  0  0  0  0  0  0
   -3.9551    1.7112   -1.6848 C   0  0  0  0  0  0  0  0  0  0  0  0
   -4.7893    1.1370   -2.1145 H   0  0  0  0  0  0  0  0  0  0  0  0
   -2.8237    1.0387   -1.2112 C   0  0  0  0  0  0  0  0  0  0  0  0
   -2.7637   -0.0571   -1.2757 H   0  0  0  0  0  0  0  0  0  0  0  0
    2.8270    2.1284    0.2464 N   0  0  0  0  0  0  0  0  0  0  0  0
    2.4256    3.4454    0.7591 C   0  0  0  0  0  0  0  0  0  0  0  0
    3.3307    4.0844    0.7440 H   0  0  0  0  0  0  0  0  0  0  0  0
    1.6972    3.8700    0.0375 H   0  0  0  0  0  0  0  0  0  0  0  0
    1.8083    3.4123    2.1577 C   0  0  0  0  0  0  0  0  0  0  0  0
    1.5245    4.4375    2.4695 H   0  0  0  0  0  0  0  0  0  0  0  0
    2.5137    3.0082    2.9097 H   0  0  0  0  0  0  0  0  0  0  0  0
    0.8935    2.7882    2.1682 H   0  0  0  0  0  0  0  0  0  0  0  0
    4.2422    1.7460    0.3073 C   0  0  0  0  0  0  0  0  0  0  0  0
    4.8313    2.6658    0.1127 H   0  0  0  0  0  0  0  0  0  0  0  0
    4.4473    1.0515   -0.5311 H   0  0  0  0  0  0  0  0  0  0  0  0
    4.6547    1.1068    1.6335 C   0  0  0  0  0  0  0  0  0  0  0  0
    5.7257    0.8245    1.5991 H   0  0  0  0  0  0  0  0  0  0  0  0
    4.0649    0.1878    1.8206 H   0  0  0  0  0  0  0  0  0  0  0  0
    4.5124    1.7994    2.4865 H   0  0  0  0  0  0  0  0  0  0  0  0
   -1.6038   -0.7150    1.0834 C   0  0  0  0  0  0  0  0  0  0  0  0
   -2.5037    0.0205    1.8746 C   0  0  0  0  0  0  0  0  0  0  0  0
   -2.4951    1.1194    1.8536 H   0  0  0  0  0  0  0  0  0  0  0  0
   -3.4166   -0.6747    2.6821 C   0  0  0  0  0  0  0  0  0  0  0  0
   -4.1334   -0.1110    3.2972 H   0  0  0  0  0  0  0  0  0  0  0  0
   -3.4157   -2.0828    2.7150 C   0  0  0  0  0  0  0  0  0  0  0  0
   -4.1365   -2.6140    3.3547 H   0  0  0  0  0  0  0  0  0  0  0  0
   -2.4934   -2.8207    1.9569 C   0  0  0  0  0  0  0  0  0  0  0  0
   -2.4579   -3.9188    1.9863 H   0  0  0  0  0  0  0  0  0  0  0  0
   -1.5746   -2.1296    1.1488 C   0  0  0  0  0  0  0  0  0  0  0  0
   -0.6099   -2.7432    0.4374 O   0  5  0  0  0  0  0  0  0  0  0  0
  2  1  1  6  0  0  0
  2 17  1  0  0  0  0
  3  4  2  0  0  0  0
  3  2  1  0  0  0  0
  4  5  1  0  0  0  0
  5 32  1  0  0  0  0
  6  7  1  0  0  0  0
  6  4  1  0  0  0  0
  7  8  1  0  0  0  0
  9 10  1  0  0  0  0
  9  7  2  0  0  0  0
 11  9  1  0  0  0  0
 12 11  1  0  0  0  0
 13 11  2  0  0  0  0
 13 15  1  0  0  0  0
 14 13  1  0  0  0  0
 15  6  2  0  0  0  0
 16 15  1  0  0  0  0
 17 25  1  0  0  0  0
 17 18  1  0  0  0  0
 18 21  1  0  0  0  0
 19 18  1  0  0  0  0
 20 18  1  0  0  0  0
 21 24  1  0  0  0  0
 21 22  1  0  0  0  0
 21 23  1  0  0  0  0
 25 28  1  0  0  0  0
 26 25  1  0  0  0  0
 27 25  1  0  0  0  0
 28 30  1  0  0  0  0
 28 31  1  0  0  0  0
 29 28  1  0  0  0  0
 32 41  2  0  0  0  0
 32 33  1  0  0  0  0
 33 35  2  0  0  0  0
 34 33  1  0  0  0  0
 35 37  1  0  0  0  0
 35 36  1  0  0  0  0
 37 38  1  0  0  0  0
 39 40  1  0  0  0  0
 39 37  2  0  0  0  0
 41 39  1  0  0  0  0
 42 41  1  0  0  0  0
M  CHG  1  42  -1
M  END
