1,2,15
 OpenBabel05122313063D

 32 33  0  0  1  0  0  0  0  0999 V2000
    0.1582   -1.7632   -0.1464 S   0  0  0  0  0  1  0  0  0  0  0  0
   -3.0244    0.6943   -0.0093 O   0  0  0  0  0  1  0  0  0  0  0  0
   -3.0822    1.9962    0.0259 C   0  0  1  0  0  3  0  0  0  0  0  0
   -4.3617    2.6311    0.0276 C   0  0  0  0  0  0  0  0  0  0  0  0
   -5.2471    1.9794    0.0013 H   0  0  0  0  0  0  0  0  0  0  0  0
   -4.4766    4.0149    0.0660 C   0  0  0  0  0  0  0  0  0  0  0  0
   -5.4776    4.4739    0.0673 H   0  0  0  0  0  0  0  0  0  0  0  0
   -3.3247    4.8437    0.1061 C   0  0  0  0  0  0  0  0  0  0  0  0
   -3.4298    5.9376    0.1377 H   0  0  0  0  0  0  0  0  0  0  0  0
   -2.0685    4.2575    0.1049 C   0  0  0  0  0  0  0  0  0  0  0  0
   -1.1621    4.8828    0.1342 H   0  0  0  0  0  0  0  0  0  0  0  0
   -1.9092    2.8386    0.0641 C   0  0  0  0  0  0  0  0  0  0  0  0
   -0.6001    2.2906    0.0554 C   0  0  0  0  0  0  0  0  0  0  0  0
    0.2628    2.9795    0.0829 H   0  0  0  0  0  0  0  0  0  0  0  0
   -0.2812    0.9995    0.0161 N   0  0  0  0  0  2  0  0  0  0  0  0
    1.0648    0.7509    0.0098 N   0  0  0  0  0  0  0  0  0  0  0  0
    1.3643   -0.5226   -0.0592 C   0  0  0  0  0  0  0  0  0  0  0  0
    2.8125   -0.9450   -0.0782 C   0  0  0  0  0  0  0  0  0  0  0  0
    3.1427   -2.1277   -0.1380 O   0  0  0  0  0  0  0  0  0  0  0  0
    3.6650    0.1362   -0.0198 N   0  0  0  0  0  0  0  0  0  0  0  0
    3.1722    1.0367    0.0251 H   0  0  0  0  0  0  0  0  0  0  0  0
    5.0639    0.1593   -0.0119 C   0  0  0  0  0  0  0  0  0  0  0  0
    5.7020    1.4200    0.0593 C   0  0  0  0  0  0  0  0  0  0  0  0
    5.0886    2.3341    0.1061 H   0  0  0  0  0  0  0  0  0  0  0  0
    7.0981    1.5086    0.0705 C   0  0  0  0  0  0  0  0  0  0  0  0
    7.5765    2.4983    0.1263 H   0  0  0  0  0  0  0  0  0  0  0  0
    7.8833    0.3454    0.0111 C   0  0  0  0  0  0  0  0  0  0  0  0
    8.9812    0.4148    0.0199 H   0  0  0  0  0  0  0  0  0  0  0  0
    7.2493   -0.9053   -0.0596 C   0  0  0  0  0  0  0  0  0  0  0  0
    7.8537   -1.8244   -0.1068 H   0  0  0  0  0  0  0  0  0  0  0  0
    5.8522   -1.0136   -0.0719 C   0  0  0  0  0  0  0  0  0  0  0  0
    5.3484   -1.9858   -0.1272 H   0  0  0  0  0  0  0  0  0  0  0  0
  1 17  1  0  0  0  0
  3  2  1  1  0  0  0
  3  4  1  0  0  0  0
  3 12  1  0  0  0  0
  4  6  2  0  0  0  0
  5  4  1  0  0  0  0
  6  7  1  0  0  0  0
  6  8  1  0  0  0  0
  8  9  1  0  0  0  0
 10  8  2  0  0  0  0
 10 11  1  0  0  0  0
 12 10  1  0  0  0  0
 13 12  2  0  0  0  0
 13 14  1  0  0  0  0
 15 13  1  0  0  0  0
 16 15  1  0  0  0  0
 17 16  2  0  0  0  0
 18 17  1  0  0  0  0
 18 20  1  0  0  0  0
 19 18  2  0  0  0  0
 20 22  1  0  0  0  0
 20 21  1  0  0  0  0
 22 23  1  0  0  0  0
 23 25  2  0  0  0  0
 23 24  1  0  0  0  0
 25 26  1  0  0  0  0
 27 28  1  0  0  0  0
 27 25  1  0  0  0  0
 29 27  2  0  0  0  0
 30 29  1  0  0  0  0
 31 29  1  0  0  0  0
 31 22  2  0  0  0  0
 32 31  1  0  0  0  0
M  END
