1,4,5
 OpenBabel05122313063D

 77 80  0  0  0  0  0  0  0  0999 V2000
    1.6376   -0.2783   -1.7919 S   0  0  1  0  0  3  0  0  0  0  0  0
   -2.4197   -2.1590    0.7810 S   0  0  2  0  0  3  0  0  0  0  0  0
    2.0323   -0.0573   -3.2239 O   0  0  0  0  0  1  0  0  0  0  0  0
   -1.5746   -2.7838   -0.3978 O   0  0  0  0  0  1  0  0  0  0  0  0
   -0.9206    0.2345   -0.4693 N   0  0  0  0  0  2  0  0  0  0  0  0
    3.1168   -0.8011   -0.8886 C   0  0  0  0  0  0  0  0  0  0  0  0
    3.1544   -0.7447    0.5114 C   0  0  0  0  0  0  0  0  0  0  0  0
    2.2939   -0.3597    1.0781 H   0  0  0  0  0  0  0  0  0  0  0  0
    4.3072   -1.1875    1.1677 C   0  0  0  0  0  0  0  0  0  0  0  0
    4.3527   -1.1397    2.2677 H   0  0  0  0  0  0  0  0  0  0  0  0
    5.4132   -1.6930    0.4467 C   0  0  0  0  0  0  0  0  0  0  0  0
    5.3333   -1.7337   -0.9598 C   0  0  0  0  0  0  0  0  0  0  0  0
    6.1860   -2.1223   -1.5382 H   0  0  0  0  0  0  0  0  0  0  0  0
    4.1870   -1.2945   -1.6385 C   0  0  0  0  0  0  0  0  0  0  0  0
    4.1089   -1.3227   -2.7349 H   0  0  0  0  0  0  0  0  0  0  0  0
    6.6333   -2.1981    1.1729 C   0  0  0  0  0  0  0  0  0  0  0  0
    6.9080   -1.5363    2.0187 H   0  0  0  0  0  0  0  0  0  0  0  0
    7.5072   -2.2800    0.4983 H   0  0  0  0  0  0  0  0  0  0  0  0
    6.4484   -3.2075    1.5992 H   0  0  0  0  0  0  0  0  0  0  0  0
    1.2305    1.2491   -0.9489 C   0  0  0  0  0  0  0  0  0  0  0  0
    2.1680    2.2897   -0.8928 C   0  0  0  0  0  0  0  0  0  0  0  0
    3.1330    2.1418   -1.3970 H   0  0  0  0  0  0  0  0  0  0  0  0
    1.8800    3.4692   -0.1927 C   0  0  0  0  0  0  0  0  0  0  0  0
    0.6090    3.5317    0.4389 C   0  0  0  0  0  0  0  0  0  0  0  0
    0.3462    4.4226    1.0304 H   0  0  0  0  0  0  0  0  0  0  0  0
   -0.3309    2.5060    0.3617 C   0  0  0  0  0  0  0  0  0  0  0  0
   -1.2898    2.6051    0.8893 H   0  0  0  0  0  0  0  0  0  0  0  0
   -0.0624    1.3130   -0.3729 C   0  0  0  0  0  0  0  0  0  0  0  0
    2.8725    4.6346   -0.0678 C   0  0  0  0  0  0  0  0  0  0  0  0
    3.2164    4.8498    1.4239 C   0  0  0  0  0  0  0  0  0  0  0  0
    3.6824    3.9410    1.8560 H   0  0  0  0  0  0  0  0  0  0  0  0
    2.3154    5.0861    2.0247 H   0  0  0  0  0  0  0  0  0  0  0  0
    3.9288    5.6926    1.5414 H   0  0  0  0  0  0  0  0  0  0  0  0
    4.1767    4.3568   -0.8342 C   0  0  0  0  0  0  0  0  0  0  0  0
    4.6998    3.4597   -0.4457 H   0  0  0  0  0  0  0  0  0  0  0  0
    4.8672    5.2174   -0.7281 H   0  0  0  0  0  0  0  0  0  0  0  0
    3.9931    4.2069   -1.9172 H   0  0  0  0  0  0  0  0  0  0  0  0
    2.2296    5.9180   -0.6408 C   0  0  0  0  0  0  0  0  0  0  0  0
    2.9282    6.7756   -0.5513 H   0  0  0  0  0  0  0  0  0  0  0  0
    1.2979    6.1871   -0.1043 H   0  0  0  0  0  0  0  0  0  0  0  0
    1.9770    5.7887   -1.7125 H   0  0  0  0  0  0  0  0  0  0  0  0
   -2.2847    0.3857   -0.3567 C   0  0  0  0  0  0  0  0  0  0  0  0
   -2.9882    1.5319   -0.8296 C   0  0  0  0  0  0  0  0  0  0  0  0
   -2.4138    2.3385   -1.3068 H   0  0  0  0  0  0  0  0  0  0  0  0
   -4.3737    1.6326   -0.7408 C   0  0  0  0  0  0  0  0  0  0  0  0
   -4.8495    2.5395   -1.1456 H   0  0  0  0  0  0  0  0  0  0  0  0
   -5.1867    0.6090   -0.1874 C   0  0  0  0  0  0  0  0  0  0  0  0
   -4.5168   -0.5333    0.2680 C   0  0  0  0  0  0  0  0  0  0  0  0
   -5.0727   -1.3803    0.6943 H   0  0  0  0  0  0  0  0  0  0  0  0
   -3.1117   -0.6320    0.2078 C   0  0  0  0  0  0  0  0  0  0  0  0
   -6.7129    0.7719   -0.1272 C   0  0  0  0  0  0  0  0  0  0  0  0
   -7.2623    0.9533   -1.5607 C   0  0  0  0  0  0  0  0  0  0  0  0
   -6.8301    1.8441   -2.0585 H   0  0  0  0  0  0  0  0  0  0  0  0
   -8.3642    1.0825   -1.5396 H   0  0  0  0  0  0  0  0  0  0  0  0
   -7.0295    0.0699   -2.1886 H   0  0  0  0  0  0  0  0  0  0  0  0
   -7.0569    2.0184    0.7198 C   0  0  0  0  0  0  0  0  0  0  0  0
   -6.6780    1.9105    1.7563 H   0  0  0  0  0  0  0  0  0  0  0  0
   -8.1559    2.1635    0.7677 H   0  0  0  0  0  0  0  0  0  0  0  0
   -6.6153    2.9409    0.2929 H   0  0  0  0  0  0  0  0  0  0  0  0
   -7.3958   -0.4522    0.5058 C   0  0  0  0  0  0  0  0  0  0  0  0
   -7.2069   -1.3768   -0.0761 H   0  0  0  0  0  0  0  0  0  0  0  0
   -8.4929   -0.2974    0.5359 H   0  0  0  0  0  0  0  0  0  0  0  0
   -7.0554   -0.6219    1.5475 H   0  0  0  0  0  0  0  0  0  0  0  0
   -1.1520   -1.5825    1.9505 C   0  0  0  0  0  0  0  0  0  0  0  0
    0.0133   -2.3582    2.0455 C   0  0  0  0  0  0  0  0  0  0  0  0
    0.1478   -3.2408    1.4022 H   0  0  0  0  0  0  0  0  0  0  0  0
    1.0197   -1.9577    2.9347 C   0  0  0  0  0  0  0  0  0  0  0  0
    1.9408   -2.5572    3.0007 H   0  0  0  0  0  0  0  0  0  0  0  0
    0.8889   -0.7907    3.7152 C   0  0  0  0  0  0  0  0  0  0  0  0
   -0.3064   -0.0476    3.6097 C   0  0  0  0  0  0  0  0  0  0  0  0
   -0.4307    0.8668    4.2107 H   0  0  0  0  0  0  0  0  0  0  0  0
   -1.3341   -0.4403    2.7418 C   0  0  0  0  0  0  0  0  0  0  0  0
   -2.2536    0.1575    2.6546 H   0  0  0  0  0  0  0  0  0  0  0  0
    2.0160   -0.3220    4.5995 C   0  0  0  0  0  0  0  0  0  0  0  0
    2.6698    0.3931    4.0535 H   0  0  0  0  0  0  0  0  0  0  0  0
    2.6548   -1.1646    4.9289 H   0  0  0  0  0  0  0  0  0  0  0  0
    1.6426    0.2049    5.4995 H   0  0  0  0  0  0  0  0  0  0  0  0
  1  3  1  6  0  0  0
  1 20  1  0  0  0  0
  1  6  1  0  0  0  0
  2  4  1  6  0  0  0
  2 64  1  0  0  0  0
  5 28  1  0  0  0  0
  5 42  1  0  0  0  0
  6  7  1  0  0  0  0
  7  8  1  0  0  0  0
  7  9  2  0  0  0  0
  9 10  1  0  0  0  0
 11  9  1  0  0  0  0
 11 16  1  0  0  0  0
 12 11  2  0  0  0  0
 13 12  1  0  0  0  0
 14 12  1  0  0  0  0
 14  6  2  0  0  0  0
 15 14  1  0  0  0  0
 16 19  1  0  0  0  0
 16 17  1  0  0  0  0
 18 16  1  0  0  0  0
 20 21  2  0  0  0  0
 20 28  1  0  0  0  0
 21 23  1  0  0  0  0
 22 21  1  0  0  0  0
 23 29  1  0  0  0  0
 23 24  2  0  0  0  0
 24 25  1  0  0  0  0
 26 24  1  0  0  0  0
 26 27  1  0  0  0  0
 28 26  2  0  0  0  0
 29 30  1  0  0  0  0
 30 33  1  0  0  0  0
 30 31  1  0  0  0  0
 30 32  1  0  0  0  0
 34 36  1  0  0  0  0
 34 35  1  0  0  0  0
 34 29  1  0  0  0  0
 37 34  1  0  0  0  0
 38 39  1  0  0  0  0
 38 40  1  0  0  0  0
 38 29  1  0  0  0  0
 41 38  1  0  0  0  0
 42 50  1  0  0  0  0
 43 45  1  0  0  0  0
 43 42  2  0  0  0  0
 44 43  1  0  0  0  0
 45 47  2  0  0  0  0
 46 45  1  0  0  0  0
 47 51  1  0  0  0  0
 47 48  1  0  0  0  0
 48 49  1  0  0  0  0
 50 48  2  0  0  0  0
 50  2  1  0  0  0  0
 51 60  1  0  0  0  0
 51 56  1  0  0  0  0
 52 54  1  0  0  0  0
 52 51  1  0  0  0  0
 53 52  1  0  0  0  0
 55 52  1  0  0  0  0
 56 58  1  0  0  0  0
 56 57  1  0  0  0  0
 59 56  1  0  0  0  0
 60 62  1  0  0  0  0
 60 63  1  0  0  0  0
 61 60  1  0  0  0  0
 64 65  2  0  0  0  0
 64 72  1  0  0  0  0
 65 67  1  0  0  0  0
 66 65  1  0  0  0  0
 67 68  1  0  0  0  0
 67 69  2  0  0  0  0
 69 74  1  0  0  0  0
 70 69  1  0  0  0  0
 70 71  1  0  0  0  0
 72 70  2  0  0  0  0
 73 72  1  0  0  0  0
 74 76  1  0  0  0  0
 74 77  1  0  0  0  0
 75 74  1  0  0  0  0
M  END
