1,2,3
 OpenBabel05122313063D

 38 38  0  0  1  0  0  0  0  0999 V2000
    2.7834   -0.1306    0.9272 S   0  0  0  0  0  0  0  0  0  0  0  0
   -1.4324   -0.4262   -0.3711 O   0  5  0  0  0  0  0  0  0  0  0  0
    0.4229    1.5866   -0.1797 N   0  0  0  0  0  2  0  0  0  0  0  0
   -0.6456    2.3599   -0.1474 C   0  0  2  0  0  3  0  0  0  0  0  0
   -1.9861    1.8392   -0.0796 C   0  0  0  0  0  0  0  0  0  0  0  0
   -2.7897    2.5753    0.0382 H   0  0  0  0  0  0  0  0  0  0  0  0
   -2.3480    0.5080   -0.2242 C   0  0  0  0  0  0  0  0  0  0  0  0
   -3.7477    0.0236   -0.2321 C   0  0  0  0  0  0  0  0  0  0  0  0
   -3.9802   -1.3656   -0.1061 C   0  0  0  0  0  0  0  0  0  0  0  0
   -3.1156   -2.0375   -0.0092 H   0  0  0  0  0  0  0  0  0  0  0  0
   -5.2865   -1.8687   -0.0940 C   0  0  0  0  0  0  0  0  0  0  0  0
   -5.4524   -2.9514    0.0109 H   0  0  0  0  0  0  0  0  0  0  0  0
   -6.3802   -0.9965   -0.2130 C   0  0  0  0  0  0  0  0  0  0  0  0
   -7.4071   -1.3923   -0.2052 H   0  0  0  0  0  0  0  0  0  0  0  0
   -6.1596    0.3852   -0.3469 C   0  0  0  0  0  0  0  0  0  0  0  0
   -7.0127    1.0725   -0.4510 H   0  0  0  0  0  0  0  0  0  0  0  0
   -4.8557    0.8925   -0.3576 C   0  0  0  0  0  0  0  0  0  0  0  0
   -4.6997    1.9735   -0.4846 H   0  0  0  0  0  0  0  0  0  0  0  0
   -0.5335    3.8732   -0.1873 C   0  0  0  0  0  0  0  0  0  0  0  0
    0.1023    4.2543    0.6375 H   0  0  0  0  0  0  0  0  0  0  0  0
   -1.5286    4.3423   -0.0934 H   0  0  0  0  0  0  0  0  0  0  0  0
   -0.0856    4.2199   -1.1411 H   0  0  0  0  0  0  0  0  0  0  0  0
    1.7560    2.1537   -0.3133 C   0  0  0  0  0  0  0  0  0  0  0  0
    1.7542    3.2623   -0.3408 H   0  0  0  0  0  0  0  0  0  0  0  0
    2.1736    1.8018   -1.2825 H   0  0  0  0  0  0  0  0  0  0  0  0
    2.6550    1.6954    0.8353 C   0  0  0  0  0  0  0  0  0  0  0  0
    2.2249    1.9880    1.8131 H   0  0  0  0  0  0  0  0  0  0  0  0
    3.6749    2.1207    0.7510 H   0  0  0  0  0  0  0  0  0  0  0  0
    4.0023   -0.4951   -0.3912 C   0  0  0  0  0  0  0  0  0  0  0  0
    3.8165   -1.5663   -0.6129 H   0  0  0  0  0  0  0  0  0  0  0  0
    3.7140    0.0582   -1.3080 H   0  0  0  0  0  0  0  0  0  0  0  0
    5.4474   -0.2428    0.0333 C   0  0  0  0  0  0  0  0  0  0  0  0
    5.6635   -0.8188    0.9580 H   0  0  0  0  0  0  0  0  0  0  0  0
    5.5795    0.8285    0.3022 H   0  0  0  0  0  0  0  0  0  0  0  0
    6.4371   -0.6208   -1.0716 C   0  0  0  0  0  0  0  0  0  0  0  0
    6.3496   -1.6941   -1.3382 H   0  0  0  0  0  0  0  0  0  0  0  0
    7.4829   -0.4366   -0.7548 H   0  0  0  0  0  0  0  0  0  0  0  0
    6.2559   -0.0342   -1.9959 H   0  0  0  0  0  0  0  0  0  0  0  0
  2  7  1  0  0  0  0
  4  3  1  6  0  0  0
  4  5  1  0  0  0  0
  5  6  1  0  0  0  0
  7  5  2  0  0  0  0
  8  7  1  0  0  0  0
  8  9  1  0  0  0  0
  9 11  2  0  0  0  0
  9 10  1  0  0  0  0
 11 12  1  0  0  0  0
 13 14  1  0  0  0  0
 13 11  1  0  0  0  0
 15 13  2  0  0  0  0
 16 15  1  0  0  0  0
 17 15  1  0  0  0  0
 17  8  2  0  0  0  0
 18 17  1  0  0  0  0
 19  4  1  0  0  0  0
 19 21  1  0  0  0  0
 19 20  1  0  0  0  0
 22 19  1  0  0  0  0
 23  3  1  0  0  0  0
 23 26  1  0  0  0  0
 24 23  1  0  0  0  0
 25 23  1  0  0  0  0
 26  1  1  0  0  0  0
 26 27  1  0  0  0  0
 28 26  1  0  0  0  0
 29 32  1  0  0  0  0
 29  1  1  0  0  0  0
 30 29  1  0  0  0  0
 31 29  1  0  0  0  0
 32 34  1  0  0  0  0
 32 33  1  0  0  0  0
 35 37  1  0  0  0  0
 35 32  1  0  0  0  0
 36 35  1  0  0  0  0
 38 35  1  0  0  0  0
M  CHG  1   2  -1
M  END
