1,2,3
 OpenBabel05122313063D

 26 26  0  0  1  0  0  0  0  0999 V2000
   -0.8382    2.6574   -0.4114 S   0  0  0  0  0  1  0  0  0  0  0  0
    1.3868   -0.6799   -0.4722 O   0  0  0  0  0  1  0  0  0  0  0  0
    1.9469    2.0403   -0.1328 N   0  0  0  0  0  2  0  0  0  0  0  0
    1.7488    3.3965   -0.0971 N   0  0  0  0  0  0  0  0  0  0  0  0
    0.2151    5.1223   -0.2431 N   0  0  0  0  0  0  0  0  0  0  0  0
    2.6827   -0.8272   -0.3493 C   0  0  1  0  0  3  0  0  0  0  0  0
    3.1918   -2.1554   -0.4850 C   0  0  0  0  0  0  0  0  0  0  0  0
    2.4574   -2.9449   -0.7003 H   0  0  0  0  0  0  0  0  0  0  0  0
    4.5437   -2.4353   -0.3580 C   0  0  0  0  0  0  0  0  0  0  0  0
    4.8953   -3.4743   -0.4698 H   0  0  0  0  0  0  0  0  0  0  0  0
    5.4821   -1.4045   -0.0857 C   0  0  0  0  0  0  0  0  0  0  0  0
    4.9948   -0.1046    0.0350 C   0  0  0  0  0  0  0  0  0  0  0  0
    5.7229    0.6935    0.2335 H   0  0  0  0  0  0  0  0  0  0  0  0
    3.6138    0.2408   -0.0949 C   0  0  0  0  0  0  0  0  0  0  0  0
    3.2159    1.6338    0.0039 C   0  0  0  0  0  0  0  0  0  0  0  0
    4.2903    2.6657    0.2538 C   0  0  0  0  0  0  0  0  0  0  0  0
    3.8359    3.6648    0.3361 H   0  0  0  0  0  0  0  0  0  0  0  0
    4.8461    2.4301    1.1833 H   0  0  0  0  0  0  0  0  0  0  0  0
    5.0262    2.6715   -0.5758 H   0  0  0  0  0  0  0  0  0  0  0  0
    0.5049    3.7811   -0.2115 C   0  0  0  0  0  0  0  0  0  0  0  0
    6.9501   -1.7195    0.0586 C   0  0  0  0  0  0  0  0  0  0  0  0
    7.1361   -2.4308    0.8916 H   0  0  0  0  0  0  0  0  0  0  0  0
    7.5449   -0.8068    0.2588 H   0  0  0  0  0  0  0  0  0  0  0  0
    7.3593   -2.1925   -0.8596 H   0  0  0  0  0  0  0  0  0  0  0  0
    0.9567    5.7531    0.0633 H   0  0  0  0  0  0  0  0  0  0  0  0
   -0.7421    5.4002   -0.0336 H   0  0  0  0  0  0  0  0  0  0  0  0
  1 20  1  0  0  0  0
  3  4  1  0  0  0  0
  3 15  1  0  0  0  0
  5 20  1  0  0  0  0
  5 26  1  0  0  0  0
  5 25  1  0  0  0  0
  6  2  1  6  0  0  0
  6 14  1  0  0  0  0
  7  9  2  0  0  0  0
  7  6  1  0  0  0  0
  8  7  1  0  0  0  0
  9 11  1  0  0  0  0
 10  9  1  0  0  0  0
 11 12  2  0  0  0  0
 11 21  1  0  0  0  0
 12 13  1  0  0  0  0
 14 15  2  0  0  0  0
 14 12  1  0  0  0  0
 15 16  1  0  0  0  0
 16 17  1  0  0  0  0
 16 18  1  0  0  0  0
 19 16  1  0  0  0  0
 20  4  2  0  0  0  0
 21 23  1  0  0  0  0
 21 22  1  0  0  0  0
 24 21  1  0  0  0  0
M  END
