1,2,3
 OpenBabel05122313063D

 26 26  0  0  1  0  0  0  0  0999 V2000
    0.0423    0.4858   -1.7387 O   0  5  0  0  0  0  0  0  0  0  0  0
   -0.0491    1.8930    0.9564 S   0  0  0  0  0  0  0  0  0  0  0  0
   -0.8032   -0.9643    0.3456 N   0  0  0  0  0  2  0  0  0  0  0  0
   -0.9834    1.2700   -1.6177 C   0  0  0  0  0  0  0  0  0  0  0  0
   -2.0706    1.1600   -2.1907 O   0  0  0  0  0  0  0  0  0  0  0  0
   -0.7761    2.4529   -0.6329 C   0  0  0  0  0  0  0  0  0  0  0  0
   -1.4990    0.9772    1.6457 C   0  0  0  0  0  0  0  0  0  0  0  0
   -1.7925   -0.2364    0.8133 C   0  0  1  0  0  3  0  0  0  0  0  0
   -2.8691   -1.6572   -0.6146 C   0  0  0  0  0  0  0  0  0  0  0  0
   -1.3882   -2.0570   -0.4519 C   0  0  0  0  0  0  0  0  0  0  0  0
   -3.0426   -0.6457    0.4499 N   0  0  0  0  0  0  0  0  0  0  0  0
   -4.2182    0.2211    0.4052 C   0  0  0  0  0  0  0  0  0  0  0  0
   -5.5262   -0.5586    0.4861 C   0  0  0  0  0  0  0  0  0  0  0  0
   -5.6626   -1.2246   -0.3887 H   0  0  0  0  0  0  0  0  0  0  0  0
   -6.3823    0.1438    0.5006 H   0  0  0  0  0  0  0  0  0  0  0  0
   -5.5669   -1.1778    1.4046 H   0  0  0  0  0  0  0  0  0  0  0  0
   -1.7171    2.9996   -0.4339 H   0  0  0  0  0  0  0  0  0  0  0  0
   -0.0241    3.1575   -1.0440 H   0  0  0  0  0  0  0  0  0  0  0  0
   -2.3518    1.6749    1.7273 H   0  0  0  0  0  0  0  0  0  0  0  0
   -1.1880    0.6806    2.6682 H   0  0  0  0  0  0  0  0  0  0  0  0
   -3.0534   -1.1638   -1.5959 H   0  0  0  0  0  0  0  0  0  0  0  0
   -3.5682   -2.5049   -0.4846 H   0  0  0  0  0  0  0  0  0  0  0  0
   -0.8654   -2.1376   -1.4229 H   0  0  0  0  0  0  0  0  0  0  0  0
   -1.2605   -3.0149    0.0974 H   0  0  0  0  0  0  0  0  0  0  0  0
   -4.1599    0.9260    1.2577 H   0  0  0  0  0  0  0  0  0  0  0  0
   -4.1717    0.8257   -0.5326 H   0  0  0  0  0  0  0  0  0  0  0  0
  1  4  1  0  0  0  0
  2  7  1  0  0  0  0
  3  8  1  0  0  0  0
  4  6  1  0  0  0  0
  5  4  2  0  0  0  0
  6 17  1  0  0  0  0
  6  2  1  0  0  0  0
  7 19  1  0  0  0  0
  7 20  1  0  0  0  0
  8  7  1  6  0  0  0
  9 22  1  0  0  0  0
  9 10  1  0  0  0  0
  9 11  1  0  0  0  0
 10 24  1  0  0  0  0
 10  3  1  0  0  0  0
 11  8  1  0  0  0  0
 12 11  1  0  0  0  0
 12 13  1  0  0  0  0
 12 25  1  0  0  0  0
 13 15  1  0  0  0  0
 13 16  1  0  0  0  0
 14 13  1  0  0  0  0
 18  6  1  0  0  0  0
 21  9  1  0  0  0  0
 23 10  1  0  0  0  0
 26 12  1  0  0  0  0
M  CHG  1   1  -1
M  END
