2,5,17
 OpenBabel05122313063D

 20 20  0  0  0  0  0  0  0  0999 V2000
   -5.8697   -0.9654    0.6490 Cl  0  0  0  0  0  0  0  0  0  0  0  0
    3.3173   -1.0527   -0.1838 S   0  0  0  0  0  1  0  0  0  0  0  0
    3.5573   -2.3036    2.1459 N   0  0  0  0  0  0  0  0  0  0  0  0
    3.1859   -2.8430    2.9285 H   0  0  0  0  0  0  0  0  0  0  0  0
   -0.4830    0.7411   -1.0611 O   0  5  0  0  0  0  0  0  0  0  0  0
   -0.7273   -1.1923    1.1398 C   0  0  0  0  0  3  0  0  0  0  0  0
   -0.9632   -1.7647    2.0572 H   0  0  0  0  0  0  0  0  0  0  0  0
   -2.8321    0.7991   -1.3265 C   0  0  0  0  0  0  0  0  0  0  0  0
   -2.6855    1.5039   -2.1575 H   0  0  0  0  0  0  0  0  0  0  0  0
   -4.2679   -0.4880    0.1403 C   0  0  0  0  0  0  0  0  0  0  0  0
   -3.1484   -1.0038    0.7950 C   0  0  0  0  0  0  0  0  0  0  0  0
   -3.2821   -1.7100    1.6272 H   0  0  0  0  0  0  0  0  0  0  0  0
    2.6594   -1.7189    1.3042 C   0  0  0  0  0  0  0  0  0  0  0  0
   -1.8374   -0.6376    0.3964 C   0  0  0  0  0  0  0  0  0  0  0  0
   -4.1159    0.4166   -0.9283 C   0  0  0  0  0  0  0  0  0  0  0  0
   -5.0048    0.8121   -1.4394 H   0  0  0  0  0  0  0  0  0  0  0  0
    0.5442   -1.1017    0.8231 N   0  0  0  0  0  2  0  0  0  0  0  0
    1.3993   -1.6826    1.6968 N   0  0  0  0  0  0  0  0  0  0  0  0
   -1.6841    0.2908   -0.6815 C   0  0  0  0  0  0  0  0  0  0  0  0
    4.4989   -2.4989    1.8126 H   0  0  0  0  0  0  0  0  0  0  0  0
  2 13  1  0  0  0  0
  3  4  1  0  0  0  0
  5 19  1  0  0  0  0
  6  7  1  0  0  0  0
  8 15  2  0  0  0  0
  8 19  1  0  0  0  0
  9  8  1  0  0  0  0
 10  1  1  0  0  0  0
 10 11  2  0  0  0  0
 11 12  1  0  0  0  0
 13 18  2  0  0  0  0
 13  3  1  0  0  0  0
 14 11  1  0  0  0  0
 14  6  1  0  0  0  0
 15 10  1  0  0  0  0
 16 15  1  0  0  0  0
 17  6  1  0  0  0  0
 17 18  1  0  0  0  0
 19 14  2  0  0  0  0
 20  3  1  0  0  0  0
M  CHG  1   5  -1
M  END
