1,2,4
 OpenBabel05122313063D

 30 30  0  0  1  0  0  0  0  0999 V2000
    2.7138    1.3658   -0.1883 S   0  0  0  0  0  1  0  0  0  0  0  0
   -0.2050   -1.3758   -0.0768 O   0  0  0  0  0  1  0  0  0  0  0  0
   -5.7204   -1.2188    0.1055 O   0  0  0  0  0  0  0  0  0  0  0  0
   -0.1326    1.3940   -0.0090 N   0  0  0  0  0  2  0  0  0  0  0  0
    0.3614    2.6741   -0.0007 N   0  0  0  0  0  0  0  0  0  0  0  0
    2.2519    4.0029   -0.0150 N   0  0  0  0  0  0  0  0  0  0  0  0
    3.2462    4.0371   -0.2319 H   0  0  0  0  0  0  0  0  0  0  0  0
   -2.1812    0.0314    0.0141 C   0  0  0  0  0  0  0  0  0  0  0  0
   -1.5058   -1.2345   -0.0285 C   0  0  1  0  0  3  0  0  0  0  0  0
   -2.2912   -2.4281   -0.0215 C   0  0  0  0  0  0  0  0  0  0  0  0
   -1.7446   -3.3820   -0.0497 H   0  0  0  0  0  0  0  0  0  0  0  0
   -3.6748   -2.3958    0.0198 C   0  0  0  0  0  0  0  0  0  0  0  0
   -4.2725   -3.3193    0.0236 H   0  0  0  0  0  0  0  0  0  0  0  0
   -4.3521   -1.1500    0.0627 C   0  0  0  0  0  0  0  0  0  0  0  0
   -3.6133    0.0313    0.0605 C   0  0  0  0  0  0  0  0  0  0  0  0
   -4.1385    0.9910    0.0967 H   0  0  0  0  0  0  0  0  0  0  0  0
   -1.4719    1.2955    0.0113 C   0  0  0  0  0  0  0  0  0  0  0  0
    1.6676    2.7670   -0.0578 C   0  0  0  0  0  0  0  0  0  0  0  0
   -2.2927    2.5628    0.0414 C   0  0  0  0  0  0  0  0  0  0  0  0
   -1.6302    3.4406    0.0033 H   0  0  0  0  0  0  0  0  0  0  0  0
   -2.9047    2.6076    0.9657 H   0  0  0  0  0  0  0  0  0  0  0  0
   -2.9928    2.5912   -0.8180 H   0  0  0  0  0  0  0  0  0  0  0  0
   -6.4371   -0.0066    0.1483 C   0  0  0  0  0  0  0  0  0  0  0  0
   -6.1904    0.5952    1.0541 H   0  0  0  0  0  0  0  0  0  0  0  0
   -7.5109   -0.2718    0.1772 H   0  0  0  0  0  0  0  0  0  0  0  0
   -6.2465    0.6257   -0.7503 H   0  0  0  0  0  0  0  0  0  0  0  0
    1.4780    5.2234   -0.0571 C   0  0  0  0  0  0  0  0  0  0  0  0
    0.9251    5.3475   -1.0163 H   0  0  0  0  0  0  0  0  0  0  0  0
    2.1539    6.0884    0.0818 H   0  0  0  0  0  0  0  0  0  0  0  0
    0.7242    5.2262    0.7563 H   0  0  0  0  0  0  0  0  0  0  0  0
  1 18  1  0  0  0  0
  3 23  1  0  0  0  0
  4  5  1  0  0  0  0
  4 17  1  0  0  0  0
  7  6  1  0  0  0  0
  8 15  1  0  0  0  0
  9  2  1  6  0  0  0
  9 10  1  0  0  0  0
  9  8  1  0  0  0  0
 10 12  2  0  0  0  0
 11 10  1  0  0  0  0
 12 13  1  0  0  0  0
 12 14  1  0  0  0  0
 14  3  1  0  0  0  0
 15 14  2  0  0  0  0
 15 16  1  0  0  0  0
 17  8  2  0  0  0  0
 17 19  1  0  0  0  0
 18  6  1  0  0  0  0
 18  5  2  0  0  0  0
 19 21  1  0  0  0  0
 20 19  1  0  0  0  0
 22 19  1  0  0  0  0
 23 25  1  0  0  0  0
 23 24  1  0  0  0  0
 26 23  1  0  0  0  0
 27  6  1  0  0  0  0
 27 29  1  0  0  0  0
 27 30  1  0  0  0  0
 28 27  1  0  0  0  0
M  END
