1,2,4
 OpenBabel05122313063D

 38 40  0  0  1  0  0  0  0  0999 V2000
   -0.0064    0.6599   -1.8750 S   0  0  0  0  0  1  0  0  0  0  0  0
    0.8176   -2.7222    1.2190 O   0  5  0  0  0  0  0  0  0  0  0  0
    2.9983   -3.5101    1.6316 N   0  0  0  0  0  0  0  0  0  0  0  0
    2.0707   -0.8271   -0.4164 N   0  0  0  0  0  2  0  0  0  0  0  0
    2.5985    0.1328   -1.1258 N   0  0  0  0  0  2  0  0  0  0  0  0
    2.2482    2.0740   -2.2821 N   0  0  0  0  0  0  0  0  0  0  0  0
    2.0503   -2.6841    1.0525 C   0  0  0  0  0  0  0  0  0  0  0  0
    2.8032   -1.7298    0.2110 C   0  0  0  0  0  0  0  0  0  0  0  0
    4.2129   -2.0308    0.3391 C   0  0  0  0  0  0  0  0  0  0  0  0
    5.3858   -1.4782   -0.1988 C   0  0  0  0  0  0  0  0  0  0  0  0
    6.6231   -2.0455    0.1541 C   0  0  0  0  0  0  0  0  0  0  0  0
    6.6867   -3.1456    1.0292 C   0  0  0  0  0  0  0  0  0  0  0  0
    5.5200   -3.7142    1.5799 C   0  0  0  0  0  0  0  0  0  0  0  0
    4.2932   -3.1487    1.2294 C   0  0  0  0  0  0  0  0  0  0  0  0
    1.6853    0.9554   -1.7437 C   0  0  1  0  0  3  0  0  0  0  0  0
    3.6443    2.4180   -1.9938 C   0  0  0  0  0  0  0  0  0  0  0  0
    3.8678    2.9453   -0.5620 C   0  0  0  0  0  0  0  0  0  0  0  0
    2.6740    3.7078    0.0381 C   0  0  0  0  0  0  0  0  0  0  0  0
    1.9801    4.7317   -0.8837 C   0  0  0  0  0  0  0  0  0  0  0  0
    0.9133    4.1288   -1.8114 C   0  0  0  0  0  0  0  0  0  0  0  0
    1.4298    3.1369   -2.8615 C   0  0  0  0  0  0  0  0  0  0  0  0
    2.7654   -4.2641    2.2770 H   0  0  0  0  0  0  0  0  0  0  0  0
    5.3160   -0.6197   -0.8805 H   0  0  0  0  0  0  0  0  0  0  0  0
    7.5527   -1.6254   -0.2575 H   0  0  0  0  0  0  0  0  0  0  0  0
    7.6652   -3.5743    1.2933 H   0  0  0  0  0  0  0  0  0  0  0  0
    5.5786   -4.5736    2.2643 H   0  0  0  0  0  0  0  0  0  0  0  0
    4.2746    1.5270   -2.1744 H   0  0  0  0  0  0  0  0  0  0  0  0
    3.9253    3.1890   -2.7380 H   0  0  0  0  0  0  0  0  0  0  0  0
    4.7685    3.5967   -0.5801 H   0  0  0  0  0  0  0  0  0  0  0  0
    4.1047    2.0891    0.1014 H   0  0  0  0  0  0  0  0  0  0  0  0
    3.0296    4.2209    0.9558 H   0  0  0  0  0  0  0  0  0  0  0  0
    1.9150    2.9738    0.3894 H   0  0  0  0  0  0  0  0  0  0  0  0
    1.4767    5.4923   -0.2499 H   0  0  0  0  0  0  0  0  0  0  0  0
    2.7392    5.2938   -1.4751 H   0  0  0  0  0  0  0  0  0  0  0  0
    0.3708    4.9379   -2.3464 H   0  0  0  0  0  0  0  0  0  0  0  0
    0.1575    3.5992   -1.1939 H   0  0  0  0  0  0  0  0  0  0  0  0
    2.0585    3.6572   -3.6146 H   0  0  0  0  0  0  0  0  0  0  0  0
    0.5760    2.6666   -3.3877 H   0  0  0  0  0  0  0  0  0  0  0  0
  3 22  1  0  0  0  0
  4  8  1  0  0  0  0
  5  4  1  0  0  0  0
  6 16  1  0  0  0  0
  6 15  1  0  0  0  0
  7  2  1  0  0  0  0
  7  3  1  0  0  0  0
  8  9  1  0  0  0  0
  8  7  2  0  0  0  0
  9 14  1  0  0  0  0
 10 11  1  0  0  0  0
 10  9  2  0  0  0  0
 11 12  2  0  0  0  0
 12 25  1  0  0  0  0
 12 13  1  0  0  0  0
 13 26  1  0  0  0  0
 14 13  2  0  0  0  0
 14  3  1  0  0  0  0
 15  1  1  6  0  0  0
 15  5  1  0  0  0  0
 16 17  1  0  0  0  0
 17 18  1  0  0  0  0
 17 30  1  0  0  0  0
 18 32  1  0  0  0  0
 18 31  1  0  0  0  0
 19 33  1  0  0  0  0
 19 18  1  0  0  0  0
 20 36  1  0  0  0  0
 20 19  1  0  0  0  0
 21  6  1  0  0  0  0
 21 20  1  0  0  0  0
 23 10  1  0  0  0  0
 24 11  1  0  0  0  0
 27 16  1  0  0  0  0
 28 16  1  0  0  0  0
 29 17  1  0  0  0  0
 34 19  1  0  0  0  0
 35 20  1  0  0  0  0
 37 21  1  0  0  0  0
 38 21  1  0  0  0  0
M  CHG  1   2  -1
M  END
