2,3,5
 OpenBabel05122313063D

 36 37  0  0  1  0  0  0  0  0999 V2000
    3.2279    0.7941   -0.3715 S   0  0  0  0  0  0  0  0  0  0  0  0
    0.5276    1.9633   -0.7051 S   0  0  0  0  0  1  0  0  0  0  0  0
   -0.3658   -0.6493    0.0233 N   0  0  0  0  0  2  0  0  0  0  0  0
    0.9951   -0.6199   -0.0257 N   0  0  0  0  0  2  0  0  0  0  0  0
   -2.8982    0.0314   -0.4946 O   0  5  0  0  0  0  0  0  0  0  0  0
   -5.4779   -0.5625   -0.5626 O   0  0  0  0  0  0  0  0  0  0  0  0
    3.8329   -0.9059    0.0301 C   0  0  0  0  0  0  0  0  0  0  0  0
    3.4005   -1.1879    1.0092 H   0  0  0  0  0  0  0  0  0  0  0  0
    3.4255   -1.5943   -0.7347 H   0  0  0  0  0  0  0  0  0  0  0  0
    1.4906    0.5589   -0.3141 C   0  0  1  0  0  3  0  0  0  0  0  0
   -0.8826   -1.8446    0.2218 C   0  0  0  0  0  3  0  0  0  0  0  0
   -0.1587   -2.6671    0.3716 H   0  0  0  0  0  0  0  0  0  0  0  0
   -3.2519   -1.1931   -0.1417 C   0  0  0  0  0  0  0  0  0  0  0  0
   -4.6368   -1.5553   -0.1832 C   0  0  0  0  0  0  0  0  0  0  0  0
   -5.0171   -2.8607    0.1595 C   0  0  0  0  0  0  0  0  0  0  0  0
   -6.0770   -3.1475    0.1382 H   0  0  0  0  0  0  0  0  0  0  0  0
   -4.0484   -3.8189    0.5375 C   0  0  0  0  0  0  0  0  0  0  0  0
   -4.3741   -4.8353    0.8022 H   0  0  0  0  0  0  0  0  0  0  0  0
   -2.7009   -3.4842    0.5726 C   0  0  0  0  0  0  0  0  0  0  0  0
   -1.9418   -4.2272    0.8593 H   0  0  0  0  0  0  0  0  0  0  0  0
   -2.2825   -2.1644    0.2406 C   0  0  0  0  0  0  0  0  0  0  0  0
    6.0363   -0.5644    1.2278 C   0  0  0  0  0  0  0  0  0  0  0  0
    5.4702   -0.3475    2.1473 H   0  0  0  0  0  0  0  0  0  0  0  0
    7.4378   -0.5225    1.2389 C   0  0  0  0  0  0  0  0  0  0  0  0
    7.9706   -0.2768    2.1701 H   0  0  0  0  0  0  0  0  0  0  0  0
    8.1596   -0.7938    0.0654 C   0  0  0  0  0  0  0  0  0  0  0  0
    9.2597   -0.7621    0.0738 H   0  0  0  0  0  0  0  0  0  0  0  0
    7.4727   -1.1060   -1.1186 C   0  0  0  0  0  0  0  0  0  0  0  0
    8.0327   -1.3194   -2.0418 H   0  0  0  0  0  0  0  0  0  0  0  0
    6.0710   -1.1475   -1.1281 C   0  0  0  0  0  0  0  0  0  0  0  0
    5.5323   -1.3888   -2.0579 H   0  0  0  0  0  0  0  0  0  0  0  0
    5.3369   -0.8845    0.0463 C   0  0  0  0  0  0  0  0  0  0  0  0
   -6.8604   -0.8517   -0.6308 C   0  0  0  0  0  0  0  0  0  0  0  0
   -7.3583    0.0791   -0.9592 H   0  0  0  0  0  0  0  0  0  0  0  0
   -7.2704   -1.1518    0.3601 H   0  0  0  0  0  0  0  0  0  0  0  0
   -7.0793   -1.6590   -1.3659 H   0  0  0  0  0  0  0  0  0  0  0  0
  1 10  1  0  0  0  0
  1  7  1  0  0  0  0
  3 11  1  0  0  0  0
  4  3  1  0  0  0  0
  5 13  1  0  0  0  0
  6 14  1  0  0  0  0
  7 32  1  0  0  0  0
  7  8  1  0  0  0  0
  9  7  1  0  0  0  0
 10  2  1  6  0  0  0
 10  4  1  0  0  0  0
 11 21  1  0  0  0  0
 11 12  1  0  0  0  0
 13 21  1  0  0  0  0
 14 13  2  0  0  0  0
 14 15  1  0  0  0  0
 15 17  2  0  0  0  0
 16 15  1  0  0  0  0
 17 19  1  0  0  0  0
 17 18  1  0  0  0  0
 19 20  1  0  0  0  0
 21 19  2  0  0  0  0
 22 24  1  0  0  0  0
 22 23  1  0  0  0  0
 24 25  1  0  0  0  0
 26 27  1  0  0  0  0
 26 24  2  0  0  0  0
 28 26  1  0  0  0  0
 29 28  1  0  0  0  0
 30 28  2  0  0  0  0
 30 32  1  0  0  0  0
 31 30  1  0  0  0  0
 32 22  2  0  0  0  0
 33  6  1  0  0  0  0
 33 35  1  0  0  0  0
 34 33  1  0  0  0  0
 36 33  1  0  0  0  0
M  CHG  1   5  -1
M  END
