1,2,6
 OpenBabel05122313063D

 16 15  0  0  1  0  0  0  0  0999 V2000
   -1.4024    1.1679   -2.1130 S   0  0  0  0  0  1  0  0  0  0  0  0
    0.2707   -1.6310    0.9678 O   0  5  0  0  0  0  0  0  0  0  0  0
   -0.8204   -3.0542    2.3651 O   0  0  0  0  0  0  0  0  0  0  0  0
   -3.9572    1.7413   -1.6285 N   0  0  0  0  0  0  0  0  0  0  0  0
   -3.0596    0.1076   -0.2695 N   0  0  0  0  0  0  0  0  0  0  0  0
   -2.0163   -0.6087    0.1909 N   0  0  0  0  0  2  0  0  0  0  0  0
   -2.8618    1.0125   -1.2895 C   0  0  1  0  0  3  0  0  0  0  0  0
   -2.1125   -1.4789    1.1429 C   0  0  1  0  0  3  0  0  0  0  0  0
   -0.7639   -2.1319    1.5440 C   0  0  0  0  0  0  0  0  0  0  0  0
   -3.3671   -1.8632    1.8535 C   0  0  0  0  0  0  0  0  0  0  0  0
   -3.9619    0.0584    0.2215 H   0  0  0  0  0  0  0  0  0  0  0  0
   -4.7834    1.7865   -1.0293 H   0  0  0  0  0  0  0  0  0  0  0  0
   -3.8158    2.4928   -2.3025 H   0  0  0  0  0  0  0  0  0  0  0  0
   -3.1282   -2.7391    2.4863 H   0  0  0  0  0  0  0  0  0  0  0  0
   -3.7192   -1.0410    2.5154 H   0  0  0  0  0  0  0  0  0  0  0  0
   -4.1899   -2.1198    1.1513 H   0  0  0  0  0  0  0  0  0  0  0  0
  2  9  1  0  0  0  0
  4  7  1  0  0  0  0
  4 12  1  0  0  0  0
  5  6  1  0  0  0  0
  5 11  1  0  0  0  0
  7  1  1  6  0  0  0
  7  5  1  0  0  0  0
  8  6  1  1  0  0  0
  8  9  1  0  0  0  0
  8 10  1  0  0  0  0
  9  3  2  0  0  0  0
 10 14  1  0  0  0  0
 10 15  1  0  0  0  0
 13  4  1  0  0  0  0
 16 10  1  0  0  0  0
M  CHG  1   2  -1
M  END
