1,2,3
 OpenBabel05122313063D

 38 38  0  0  0  0  0  0  0  0999 V2000
   -2.8106   -1.5438    0.1250 S   0  0  0  0  0  1  0  0  0  0  0  0
    1.2478   -0.3102   -0.1391 O   0  5  0  0  0  0  0  0  0  0  0  0
   -1.2308    0.9278    0.1666 N   0  0  0  0  0  2  0  0  0  0  0  0
   -2.5614    1.1931    0.2644 N   0  0  0  0  0  0  0  0  0  0  0  0
   -4.6989    0.3258    0.3040 N   0  0  0  0  0  0  0  0  0  0  0  0
   -5.2734   -0.5007    0.1378 H   0  0  0  0  0  0  0  0  0  0  0  0
    1.8144    0.8824    0.0543 C   0  0  0  0  0  0  0  0  0  0  0  0
    3.2363    0.9960   -0.0038 C   0  0  0  0  0  0  0  0  0  0  0  0
    3.7835    2.2678    0.2441 C   0  0  0  0  0  0  0  0  0  0  0  0
    4.8737    2.3925    0.2151 H   0  0  0  0  0  0  0  0  0  0  0  0
    2.9912    3.3963    0.5273 C   0  0  0  0  0  0  0  0  0  0  0  0
    3.4692    4.3688    0.7141 H   0  0  0  0  0  0  0  0  0  0  0  0
    1.6066    3.2735    0.5609 C   0  0  0  0  0  0  0  0  0  0  0  0
    0.9683    4.1458    0.7703 H   0  0  0  0  0  0  0  0  0  0  0  0
    0.9901    2.0187    0.3230 C   0  0  0  0  0  0  0  0  0  0  0  0
   -0.4507    1.9667    0.3676 C   0  0  0  0  0  3  0  0  0  0  0  0
   -0.9746    2.9150    0.5915 H   0  0  0  0  0  0  0  0  0  0  0  0
   -3.3531    0.1459    0.2220 C   0  0  0  0  0  0  0  0  0  0  0  0
   -5.3272    1.6411    0.2850 C   0  0  0  0  0  0  0  0  0  0  0  0
   -4.7286    2.3001    0.9448 H   0  0  0  0  0  0  0  0  0  0  0  0
   -6.3317    1.5334    0.7436 H   0  0  0  0  0  0  0  0  0  0  0  0
   -5.4259    2.2537   -1.1137 C   0  0  0  0  0  0  0  0  0  0  0  0
   -5.9152    3.2475   -1.0672 H   0  0  0  0  0  0  0  0  0  0  0  0
   -6.0175    1.6112   -1.7970 H   0  0  0  0  0  0  0  0  0  0  0  0
   -4.4144    2.3856   -1.5453 H   0  0  0  0  0  0  0  0  0  0  0  0
    4.1203   -0.2178   -0.3502 C   0  0  0  0  0  0  0  0  0  0  0  0
    3.8929   -1.3630    0.6648 C   0  0  0  0  0  0  0  0  0  0  0  0
    2.8593   -1.7501    0.6177 H   0  0  0  0  0  0  0  0  0  0  0  0
    4.0968   -1.0195    1.6999 H   0  0  0  0  0  0  0  0  0  0  0  0
    4.5820   -2.2036    0.4432 H   0  0  0  0  0  0  0  0  0  0  0  0
    5.6170    0.1441   -0.3170 C   0  0  0  0  0  0  0  0  0  0  0  0
    5.8731    0.9332   -1.0525 H   0  0  0  0  0  0  0  0  0  0  0  0
    6.2151   -0.7527   -0.5740 H   0  0  0  0  0  0  0  0  0  0  0  0
    5.9417    0.4844    0.6874 H   0  0  0  0  0  0  0  0  0  0  0  0
    3.7820   -0.7043   -1.7801 C   0  0  0  0  0  0  0  0  0  0  0  0
    3.9771    0.0957   -2.5225 H   0  0  0  0  0  0  0  0  0  0  0  0
    2.7235   -1.0101   -1.8718 H   0  0  0  0  0  0  0  0  0  0  0  0
    4.4143   -1.5773   -2.0430 H   0  0  0  0  0  0  0  0  0  0  0  0
  1 18  1  0  0  0  0
  2  7  1  0  0  0  0
  3  4  1  0  0  0  0
  3 16  1  0  0  0  0
  6  5  1  0  0  0  0
  7 15  1  0  0  0  0
  8  7  2  0  0  0  0
  8  9  1  0  0  0  0
  9 11  2  0  0  0  0
 10  9  1  0  0  0  0
 11 13  1  0  0  0  0
 11 12  1  0  0  0  0
 13 14  1  0  0  0  0
 15 16  1  0  0  0  0
 15 13  2  0  0  0  0
 16 17  1  0  0  0  0
 18  4  2  0  0  0  0
 18  5  1  0  0  0  0
 19  5  1  0  0  0  0
 19 21  1  0  0  0  0
 19 20  1  0  0  0  0
 22 23  1  0  0  0  0
 22 19  1  0  0  0  0
 24 22  1  0  0  0  0
 25 22  1  0  0  0  0
 26 31  1  0  0  0  0
 26  8  1  0  0  0  0
 26 27  1  0  0  0  0
 27 29  1  0  0  0  0
 28 27  1  0  0  0  0
 30 27  1  0  0  0  0
 31 34  1  0  0  0  0
 32 31  1  0  0  0  0
 33 31  1  0  0  0  0
 35 26  1  0  0  0  0
 36 35  1  0  0  0  0
 37 35  1  0  0  0  0
 38 35  1  0  0  0  0
M  CHG  1   2  -1
M  END
