1,3,4
 OpenBabel05122313063D

 34 35  0  0  0  0  0  0  0  0999 V2000
    1.6725    0.7523   -0.0915 S   0  0  0  0  0  1  0  0  0  0  0  0
   -7.0762   -0.4014    0.1083 O   0  0  0  0  0  0  0  0  0  0  0  0
   -2.5113    0.8942   -0.3766 O   0  5  0  0  0  0  0  0  0  0  0  0
   -0.5740   -1.0708   -0.1098 N   0  0  0  0  0  2  0  0  0  0  0  0
    0.6012   -1.7512    0.0123 N   0  0  0  0  0  0  0  0  0  0  0  0
    2.8956   -1.6624    0.1338 N   0  0  0  0  0  0  0  0  0  0  0  0
   -3.4104   -0.0567   -0.1571 C   0  0  0  0  0  0  0  0  0  0  0  0
   -4.7737    0.2910   -0.1474 C   0  0  0  0  0  0  0  0  0  0  0  0
   -5.0430    1.3436   -0.3224 H   0  0  0  0  0  0  0  0  0  0  0  0
   -5.7528   -0.6889    0.0871 C   0  0  0  0  0  0  0  0  0  0  0  0
   -5.3771   -2.0364    0.3158 C   0  0  0  0  0  0  0  0  0  0  0  0
   -6.1621   -2.7829    0.4969 H   0  0  0  0  0  0  0  0  0  0  0  0
   -4.0311   -2.3744    0.3074 C   0  0  0  0  0  0  0  0  0  0  0  0
   -3.7310   -3.4182    0.4876 H   0  0  0  0  0  0  0  0  0  0  0  0
   -3.0123   -1.4102    0.0727 C   0  0  0  0  0  0  0  0  0  0  0  0
   -1.6426   -1.8188    0.0986 C   0  0  0  0  0  3  0  0  0  0  0  0
   -1.4331   -2.8803    0.3263 H   0  0  0  0  0  0  0  0  0  0  0  0
    1.6896   -1.0184   -0.0131 C   0  0  0  0  0  0  0  0  0  0  0  0
    2.8649   -3.0937    0.4363 C   0  0  0  0  0  0  0  0  0  0  0  0
    2.3680   -3.2878    1.4089 H   0  0  0  0  0  0  0  0  0  0  0  0
    3.9016   -3.4721    0.4580 H   0  0  0  0  0  0  0  0  0  0  0  0
    2.2891   -3.6340   -0.3413 H   0  0  0  0  0  0  0  0  0  0  0  0
    4.1498   -0.9990    0.0108 C   0  0  0  0  0  0  0  0  0  0  0  0
    4.4544   -0.2392   -1.1381 C   0  0  0  0  0  0  0  0  0  0  0  0
    3.7118   -0.1552   -1.9436 H   0  0  0  0  0  0  0  0  0  0  0  0
    5.6995    0.3939   -1.2478 C   0  0  0  0  0  0  0  0  0  0  0  0
    5.9257    0.9861   -2.1472 H   0  0  0  0  0  0  0  0  0  0  0  0
    6.6593    0.2596   -0.2318 C   0  0  0  0  0  0  0  0  0  0  0  0
    7.6384    0.7523   -0.3266 H   0  0  0  0  0  0  0  0  0  0  0  0
    6.3643   -0.5122    0.9032 C   0  0  0  0  0  0  0  0  0  0  0  0
    7.1085   -0.6217    1.7065 H   0  0  0  0  0  0  0  0  0  0  0  0
    5.1145   -1.1340    1.0303 C   0  0  0  0  0  0  0  0  0  0  0  0
    4.8734   -1.7166    1.9316 H   0  0  0  0  0  0  0  0  0  0  0  0
   -7.1929    0.5525   -0.0619 H   0  0  0  0  0  0  0  0  0  0  0  0
  1 18  1  0  0  0  0
  3  7  1  0  0  0  0
  4  5  1  0  0  0  0
  4 16  1  0  0  0  0
  6 19  1  0  0  0  0
  7  8  2  0  0  0  0
  7 15  1  0  0  0  0
  8 10  1  0  0  0  0
  9  8  1  0  0  0  0
 10  2  1  0  0  0  0
 10 11  2  0  0  0  0
 11 12  1  0  0  0  0
 13 11  1  0  0  0  0
 13 14  1  0  0  0  0
 15 16  1  0  0  0  0
 15 13  2  0  0  0  0
 16 17  1  0  0  0  0
 18  5  2  0  0  0  0
 18  6  1  0  0  0  0
 19 21  1  0  0  0  0
 19 20  1  0  0  0  0
 22 19  1  0  0  0  0
 23  6  1  0  0  0  0
 23 32  1  0  0  0  0
 24 23  2  0  0  0  0
 25 24  1  0  0  0  0
 26 24  1  0  0  0  0
 26 28  2  0  0  0  0
 27 26  1  0  0  0  0
 28 30  1  0  0  0  0
 29 28  1  0  0  0  0
 30 32  2  0  0  0  0
 30 31  1  0  0  0  0
 32 33  1  0  0  0  0
 34  2  1  0  0  0  0
M  CHG  1   3  -1
M  END
