1,2,3,4
 OpenBabel05122313063D

 41 42  0  0  0  0  0  0  0  0999 V2000
    1.8398    0.7804    1.3872 S   0  0  0  0  0  1  0  0  0  0  0  0
   -1.8401    0.7826    1.3861 S   0  0  0  0  0  1  0  0  0  0  0  0
    1.8887   -0.9924   -1.3296 S   0  0  0  0  0  0  0  0  0  0  0  0
   -1.8893   -0.9907   -1.3304 S   0  0  0  0  0  0  0  0  0  0  0  0
   -0.0012   -2.0299    1.0178 N   0  0  0  0  0  0  0  0  0  0  0  0
    1.6740   -2.7446   -0.7570 C   0  0  0  0  0  0  0  0  0  0  0  0
    0.9586   -3.2091   -1.4612 H   0  0  0  0  0  0  0  0  0  0  0  0
    2.6489   -3.2553   -0.8826 H   0  0  0  0  0  0  0  0  0  0  0  0
    1.2391   -2.7860    0.6941 C   0  0  0  0  0  0  0  0  0  0  0  0
    1.1269   -3.8450    1.0305 H   0  0  0  0  0  0  0  0  0  0  0  0
    2.0518   -2.3377    1.2997 H   0  0  0  0  0  0  0  0  0  0  0  0
   -1.6747   -2.7433   -0.7592 C   0  0  0  0  0  0  0  0  0  0  0  0
   -2.6494   -3.2542   -0.8859 H   0  0  0  0  0  0  0  0  0  0  0  0
   -0.9587   -3.2070   -1.4633 H   0  0  0  0  0  0  0  0  0  0  0  0
   -1.2410   -2.7860    0.6923 C   0  0  0  0  0  0  0  0  0  0  0  0
   -2.0544   -2.3384    1.2976 H   0  0  0  0  0  0  0  0  0  0  0  0
   -1.1289   -3.8453    1.0278 H   0  0  0  0  0  0  0  0  0  0  0  0
   -0.0022   -1.8057    2.4863 C   0  0  0  0  0  0  0  0  0  0  0  0
   -0.0028   -2.7789    3.0285 H   0  0  0  0  0  0  0  0  0  0  0  0
   -0.8962   -1.2145    2.7581 H   0  0  0  0  0  0  0  0  0  0  0  0
    0.8918   -1.2150    2.7593 H   0  0  0  0  0  0  0  0  0  0  0  0
    3.3502    0.1374    0.7504 C   0  0  0  0  0  0  0  0  0  0  0  0
    3.4149   -0.6140   -0.4436 C   0  0  0  0  0  0  0  0  0  0  0  0
    4.6391   -1.0603   -0.9727 C   0  0  0  0  0  0  0  0  0  0  0  0
    4.6461   -1.6151   -1.9245 H   0  0  0  0  0  0  0  0  0  0  0  0
    5.8331   -0.7969   -0.2896 C   0  0  0  0  0  0  0  0  0  0  0  0
    6.7934   -1.1436   -0.6986 H   0  0  0  0  0  0  0  0  0  0  0  0
    5.7867   -0.0731    0.9187 C   0  0  0  0  0  0  0  0  0  0  0  0
    6.7185    0.1436    1.4636 H   0  0  0  0  0  0  0  0  0  0  0  0
    4.5709    0.3896    1.4299 C   0  0  0  0  0  0  0  0  0  0  0  0
    4.5407    0.9682    2.3658 H   0  0  0  0  0  0  0  0  0  0  0  0
   -3.3505    0.1390    0.7498 C   0  0  0  0  0  0  0  0  0  0  0  0
   -3.4153   -0.6127   -0.4440 C   0  0  0  0  0  0  0  0  0  0  0  0
   -4.6396   -1.0594   -0.9726 C   0  0  0  0  0  0  0  0  0  0  0  0
   -4.6468   -1.6144   -1.9243 H   0  0  0  0  0  0  0  0  0  0  0  0
   -5.8334   -0.7962   -0.2892 C   0  0  0  0  0  0  0  0  0  0  0  0
   -6.7938   -1.1433   -0.6978 H   0  0  0  0  0  0  0  0  0  0  0  0
   -5.7869   -0.0720    0.9189 C   0  0  0  0  0  0  0  0  0  0  0  0
   -6.7187    0.1446    1.4641 H   0  0  0  0  0  0  0  0  0  0  0  0
   -4.5711    0.3911    1.4296 C   0  0  0  0  0  0  0  0  0  0  0  0
   -4.5408    0.9700    2.3653 H   0  0  0  0  0  0  0  0  0  0  0  0
  3  6  1  0  0  0  0
  3 23  1  0  0  0  0
  4 12  1  0  0  0  0
  4 33  1  0  0  0  0
  5 18  1  0  0  0  0
  6  9  1  0  0  0  0
  7  6  1  0  0  0  0
  8  6  1  0  0  0  0
  9  5  1  0  0  0  0
  9 10  1  0  0  0  0
  9 11  1  0  0  0  0
 12 15  1  0  0  0  0
 13 12  1  0  0  0  0
 14 12  1  0  0  0  0
 15  5  1  0  0  0  0
 15 17  1  0  0  0  0
 15 16  1  0  0  0  0
 18 20  1  0  0  0  0
 18 21  1  0  0  0  0
 18 19  1  0  0  0  0
 22  1  1  0  0  0  0
 22 30  1  0  0  0  0
 23 22  2  0  0  0  0
 24 23  1  0  0  0  0
 24 26  2  0  0  0  0
 25 24  1  0  0  0  0
 26 28  1  0  0  0  0
 27 26  1  0  0  0  0
 28 30  2  0  0  0  0
 28 29  1  0  0  0  0
 30 31  1  0  0  0  0
 32  2  1  0  0  0  0
 32 40  1  0  0  0  0
 33 32  2  0  0  0  0
 34 33  1  0  0  0  0
 34 36  2  0  0  0  0
 35 34  1  0  0  0  0
 36 38  1  0  0  0  0
 37 36  1  0  0  0  0
 38 40  2  0  0  0  0
 38 39  1  0  0  0  0
 40 41  1  0  0  0  0
M  END
