1,5,21,22
 OpenBabel05122313063D

 40 40  0  0  0  0  0  0  0  0999 V2000
   -0.8317   -1.6085   -1.3758 S   0  0  0  0  0  0  0  0  0  0  0  0
   -1.2428   -3.0789   -0.3347 C   0  0  0  0  0  0  0  0  0  0  0  0
    0.0004   -3.9015    0.0006 C   0  0  0  0  0  0  0  0  0  0  0  0
    1.2435   -3.0785    0.3357 C   0  0  0  0  0  0  0  0  0  0  0  0
    0.8321   -1.6079    1.3763 S   0  0  0  0  0  0  0  0  0  0  0  0
    2.5705   -1.2771    1.8872 C   0  0  0  0  0  0  0  0  0  0  0  0
    2.7056    0.0007    2.7063 C   0  0  0  0  0  0  0  0  0  0  0  0
   -2.5702   -1.2783   -1.8867 C   0  0  0  0  0  0  0  0  0  0  0  0
   -1.7398   -2.6778    0.5755 H   0  0  0  0  0  0  0  0  0  0  0  0
   -1.9768   -3.6878   -0.8992 H   0  0  0  0  0  0  0  0  0  0  0  0
   -0.2613   -4.5632    0.8530 H   0  0  0  0  0  0  0  0  0  0  0  0
    0.2623   -4.5635   -0.8515 H   0  0  0  0  0  0  0  0  0  0  0  0
    1.7404   -2.6777   -0.5747 H   0  0  0  0  0  0  0  0  0  0  0  0
    1.9776   -3.6871    0.9003 H   0  0  0  0  0  0  0  0  0  0  0  0
    3.1843   -1.2257    0.9630 H   0  0  0  0  0  0  0  0  0  0  0  0
    2.8711   -2.1614    2.4852 H   0  0  0  0  0  0  0  0  0  0  0  0
    1.9872    0.0006    3.5552 H   0  0  0  0  0  0  0  0  0  0  0  0
    3.7197    0.0008    3.1604 H   0  0  0  0  0  0  0  0  0  0  0  0
   -3.1839   -1.2268   -0.9623 H   0  0  0  0  0  0  0  0  0  0  0  0
   -2.8707   -2.1627   -2.4845 H   0  0  0  0  0  0  0  0  0  0  0  0
    0.8317    1.6085    1.3759 S   0  0  0  0  0  0  0  0  0  0  0  0
   -0.8321    1.6079   -1.3762 S   0  0  0  0  0  0  0  0  0  0  0  0
    2.5702    1.2783    1.8870 C   0  0  0  0  0  0  0  0  0  0  0  0
   -2.7058   -0.0007   -2.7060 C   0  0  0  0  0  0  0  0  0  0  0  0
    1.2428    3.0790    0.3349 C   0  0  0  0  0  0  0  0  0  0  0  0
   -1.2435    3.0784   -0.3355 C   0  0  0  0  0  0  0  0  0  0  0  0
   -2.5706    1.2771   -1.8869 C   0  0  0  0  0  0  0  0  0  0  0  0
    3.1840    1.2268    0.9627 H   0  0  0  0  0  0  0  0  0  0  0  0
    2.8706    2.1628    2.4848 H   0  0  0  0  0  0  0  0  0  0  0  0
   -1.9875   -0.0006   -3.5550 H   0  0  0  0  0  0  0  0  0  0  0  0
   -3.7199   -0.0008   -3.1599 H   0  0  0  0  0  0  0  0  0  0  0  0
   -0.0005    3.9015   -0.0005 C   0  0  0  0  0  0  0  0  0  0  0  0
    1.7399    2.6780   -0.5753 H   0  0  0  0  0  0  0  0  0  0  0  0
    1.9767    3.6879    0.8995 H   0  0  0  0  0  0  0  0  0  0  0  0
   -1.7403    2.6774    0.5749 H   0  0  0  0  0  0  0  0  0  0  0  0
   -1.9778    3.6869   -0.9000 H   0  0  0  0  0  0  0  0  0  0  0  0
   -3.1842    1.2257   -0.9625 H   0  0  0  0  0  0  0  0  0  0  0  0
   -2.8713    2.1614   -2.4849 H   0  0  0  0  0  0  0  0  0  0  0  0
    0.2611    4.5632   -0.8528 H   0  0  0  0  0  0  0  0  0  0  0  0
   -0.2624    4.5634    0.8517 H   0  0  0  0  0  0  0  0  0  0  0  0
  1  2  1  0  0  0  0
  2  3  1  0  0  0  0
  2  9  1  0  0  0  0
  3  4  1  0  0  0  0
  3 11  1  0  0  0  0
  4 14  1  0  0  0  0
  4  5  1  0  0  0  0
  5  6  1  0  0  0  0
  6 16  1  0  0  0  0
  6  7  1  0  0  0  0
  7 18  1  0  0  0  0
  7 17  1  0  0  0  0
  8  1  1  0  0  0  0
  8 19  1  0  0  0  0
 10  2  1  0  0  0  0
 12  3  1  0  0  0  0
 13  4  1  0  0  0  0
 15  6  1  0  0  0  0
 20  8  1  0  0  0  0
 21 23  1  0  0  0  0
 22 26  1  0  0  0  0
 23 29  1  0  0  0  0
 23  7  1  0  0  0  0
 24 27  1  0  0  0  0
 24  8  1  0  0  0  0
 25 34  1  0  0  0  0
 25 21  1  0  0  0  0
 26 32  1  0  0  0  0
 26 35  1  0  0  0  0
 27 22  1  0  0  0  0
 27 37  1  0  0  0  0
 28 23  1  0  0  0  0
 30 24  1  0  0  0  0
 31 24  1  0  0  0  0
 32 25  1  0  0  0  0
 32 40  1  0  0  0  0
 33 25  1  0  0  0  0
 36 26  1  0  0  0  0
 38 27  1  0  0  0  0
 39 32  1  0  0  0  0
M  END
