2,5,12,15
 OpenBabel05122313063D

 38 38  0  0  1  0  0  0  0  0999 V2000
   -0.5073   -2.0495    2.6399 C   0  0  0  0  0  0  0  0  0  0  0  0
    0.8475   -1.5456    1.5260 S   0  0  0  0  0  0  0  0  0  0  0  0
    0.9041   -2.9702    0.3676 C   0  0  0  0  0  0  0  0  0  0  0  0
   -0.3725   -3.1129   -0.4377 C   0  0  0  0  0  0  0  0  0  0  0  0
   -0.6638   -1.5038   -1.2928 S   0  0  0  0  0  0  0  0  0  0  0  0
   -2.5073   -1.3299   -1.4144 C   0  0  1  0  0  0  0  0  0  0  0  0
   -3.2652   -1.3886   -0.0890 C   0  0  0  0  0  0  0  0  0  0  0  0
   -2.8820   -0.0126    1.0466 S   0  0  0  0  0  0  0  0  0  0  0  0
   -3.2810    1.3485   -0.1011 C   0  0  0  0  0  0  0  0  0  0  0  0
   -2.7802   -0.0254   -2.1954 C   0  0  0  0  0  0  0  0  0  0  0  0
   -2.5218    1.2885   -1.4257 C   0  0  2  0  0  0  0  0  0  0  0  0
   -0.6801    1.4930   -1.3022 S   0  0  0  0  0  0  0  0  0  0  0  0
   -0.4240    3.1141   -0.4575 C   0  0  0  0  0  0  0  0  0  0  0  0
    0.8551    3.0031    0.3484 C   0  0  0  0  0  0  0  0  0  0  0  0
    0.8311    1.5795    1.5097 S   0  0  0  0  0  0  0  0  0  0  0  0
   -0.5276    2.0621    2.6288 C   0  0  0  0  0  0  0  0  0  0  0  0
   -0.1719   -2.9364    3.2127 H   0  0  0  0  0  0  0  0  0  0  0  0
   -0.6709   -1.2124    3.3428 H   0  0  0  0  0  0  0  0  0  0  0  0
   -1.4538   -2.2635    2.1117 H   0  0  0  0  0  0  0  0  0  0  0  0
    1.1271   -3.8827    0.9578 H   0  0  0  0  0  0  0  0  0  0  0  0
    1.7918   -2.7251   -0.2522 H   0  0  0  0  0  0  0  0  0  0  0  0
   -1.2489   -3.3685    0.1900 H   0  0  0  0  0  0  0  0  0  0  0  0
   -0.2670   -3.8871   -1.2248 H   0  0  0  0  0  0  0  0  0  0  0  0
   -2.8249   -2.1827   -2.0520 H   0  0  0  0  0  0  0  0  0  0  0  0
   -3.0653   -2.3239    0.4704 H   0  0  0  0  0  0  0  0  0  0  0  0
   -4.3560   -1.3821   -0.3012 H   0  0  0  0  0  0  0  0  0  0  0  0
   -3.0943    2.2909    0.4507 H   0  0  0  0  0  0  0  0  0  0  0  0
   -4.3713    1.3263   -0.3148 H   0  0  0  0  0  0  0  0  0  0  0  0
   -3.8552   -0.0319   -2.4756 H   0  0  0  0  0  0  0  0  0  0  0  0
   -2.2102   -0.0265   -3.1465 H   0  0  0  0  0  0  0  0  0  0  0  0
   -2.8494    2.1323   -2.0703 H   0  0  0  0  0  0  0  0  0  0  0  0
   -1.3056    3.3542    0.1689 H   0  0  0  0  0  0  0  0  0  0  0  0
   -0.3355    3.8855   -1.2495 H   0  0  0  0  0  0  0  0  0  0  0  0
    1.0565    3.9220    0.9366 H   0  0  0  0  0  0  0  0  0  0  0  0
    1.7483    2.7764   -0.2712 H   0  0  0  0  0  0  0  0  0  0  0  0
   -0.2066    2.9576    3.1965 H   0  0  0  0  0  0  0  0  0  0  0  0
   -1.4807    2.2555    2.1045 H   0  0  0  0  0  0  0  0  0  0  0  0
   -0.6713    1.2248    3.3358 H   0  0  0  0  0  0  0  0  0  0  0  0
  1 17  1  0  0  0  0
  1 18  1  0  0  0  0
  2  1  1  0  0  0  0
  3 20  1  0  0  0  0
  3  2  1  0  0  0  0
  4 22  1  0  0  0  0
  4  3  1  0  0  0  0
  5  4  1  0  0  0  0
  6 24  1  6  0  0  0
  6  5  1  0  0  0  0
  6  7  1  0  0  0  0
  7 25  1  0  0  0  0
  7  8  1  0  0  0  0
  9 27  1  0  0  0  0
  9  8  1  0  0  0  0
 10 11  1  0  0  0  0
 10  6  1  0  0  0  0
 11 31  1  6  0  0  0
 11 12  1  0  0  0  0
 11  9  1  0  0  0  0
 12 13  1  0  0  0  0
 13 32  1  0  0  0  0
 13 14  1  0  0  0  0
 14 34  1  0  0  0  0
 14 15  1  0  0  0  0
 15 16  1  0  0  0  0
 16 36  1  0  0  0  0
 16 38  1  0  0  0  0
 19  1  1  0  0  0  0
 21  3  1  0  0  0  0
 23  4  1  0  0  0  0
 26  7  1  0  0  0  0
 28  9  1  0  0  0  0
 29 10  1  0  0  0  0
 30 10  1  0  0  0  0
 33 13  1  0  0  0  0
 35 14  1  0  0  0  0
 37 16  1  0  0  0  0
M  END
