1,2,3,4
 OpenBabel05122313063D

 54 56  0  0  1  0  0  0  0  0999 V2000
    1.4124   -1.3443   -1.0002 S   0  0  0  0  0  0  0  0  0  0  0  0
    1.6609    1.1707    1.2195 S   0  0  0  0  0  0  0  0  0  0  0  0
   -1.4124    1.3443   -1.0002 S   0  0  0  0  0  0  0  0  0  0  0  0
   -1.6609   -1.1706    1.2195 S   0  0  0  0  0  0  0  0  0  0  0  0
    2.9930   -0.8707   -0.1413 C   0  0  1  0  0  0  0  0  0  0  0  0
    4.1990   -1.3636   -0.9564 C   0  0  0  0  0  0  0  0  0  0  0  0
    5.5321   -0.9159   -0.3458 C   0  0  0  0  0  0  0  0  0  0  0  0
    5.5709    0.6060   -0.1907 C   0  0  0  0  0  0  0  0  0  0  0  0
    4.3899    1.0920    0.6585 C   0  0  0  0  0  0  0  0  0  0  0  0
    3.0391    0.6550    0.0727 C   0  0  2  0  0  0  0  0  0  0  0  0
    1.4245    2.9418    0.7631 C   0  0  0  0  0  0  0  0  0  0  0  0
    0.5124    3.2724   -0.4201 C   0  0  0  0  0  0  0  0  0  0  0  0
   -0.9865    2.9652   -0.2352 C   0  0  0  0  0  0  0  0  0  0  0  0
   -2.9930    0.8707   -0.1413 C   0  0  1  0  0  0  0  0  0  0  0  0
   -4.1990    1.3636   -0.9564 C   0  0  0  0  0  0  0  0  0  0  0  0
   -5.5321    0.9159   -0.3458 C   0  0  0  0  0  0  0  0  0  0  0  0
   -5.5709   -0.6060   -0.1907 C   0  0  0  0  0  0  0  0  0  0  0  0
   -4.3899   -1.0920    0.6585 C   0  0  0  0  0  0  0  0  0  0  0  0
   -3.0391   -0.6550    0.0727 C   0  0  2  0  0  0  0  0  0  0  0  0
   -1.4245   -2.9418    0.7631 C   0  0  0  0  0  0  0  0  0  0  0  0
   -0.5124   -3.2724   -0.4201 C   0  0  0  0  0  0  0  0  0  0  0  0
    0.9865   -2.9652   -0.2352 C   0  0  0  0  0  0  0  0  0  0  0  0
    2.9703   -1.3696    0.8532 H   0  0  0  0  0  0  0  0  0  0  0  0
    4.1523   -2.4686   -1.0411 H   0  0  0  0  0  0  0  0  0  0  0  0
    4.1070   -0.9652   -1.9903 H   0  0  0  0  0  0  0  0  0  0  0  0
    5.6690   -1.3953    0.6486 H   0  0  0  0  0  0  0  0  0  0  0  0
    6.3684   -1.2701   -0.9816 H   0  0  0  0  0  0  0  0  0  0  0  0
    6.5214    0.9318    0.2776 H   0  0  0  0  0  0  0  0  0  0  0  0
    5.5346    1.0853   -1.1939 H   0  0  0  0  0  0  0  0  0  0  0  0
    4.4719    0.6808    1.6881 H   0  0  0  0  0  0  0  0  0  0  0  0
    4.4094    2.1970    0.7598 H   0  0  0  0  0  0  0  0  0  0  0  0
    2.8547    1.1615   -0.9009 H   0  0  0  0  0  0  0  0  0  0  0  0
    2.4392    3.3597    0.6033 H   0  0  0  0  0  0  0  0  0  0  0  0
    1.0392    3.4028    1.6958 H   0  0  0  0  0  0  0  0  0  0  0  0
    0.6133    4.3659   -0.5885 H   0  0  0  0  0  0  0  0  0  0  0  0
    0.8909    2.8015   -1.3534 H   0  0  0  0  0  0  0  0  0  0  0  0
   -1.6076    3.7412   -0.7235 H   0  0  0  0  0  0  0  0  0  0  0  0
   -1.2621    2.9270    0.8393 H   0  0  0  0  0  0  0  0  0  0  0  0
   -2.9703    1.3696    0.8532 H   0  0  0  0  0  0  0  0  0  0  0  0
   -4.1523    2.4686   -1.0411 H   0  0  0  0  0  0  0  0  0  0  0  0
   -4.1070    0.9652   -1.9903 H   0  0  0  0  0  0  0  0  0  0  0  0
   -5.6690    1.3953    0.6486 H   0  0  0  0  0  0  0  0  0  0  0  0
   -6.3684    1.2701   -0.9816 H   0  0  0  0  0  0  0  0  0  0  0  0
   -5.5346   -1.0853   -1.1939 H   0  0  0  0  0  0  0  0  0  0  0  0
   -6.5214   -0.9318    0.2776 H   0  0  0  0  0  0  0  0  0  0  0  0
   -4.4094   -2.1970    0.7598 H   0  0  0  0  0  0  0  0  0  0  0  0
   -4.4719   -0.6808    1.6881 H   0  0  0  0  0  0  0  0  0  0  0  0
   -2.8547   -1.1615   -0.9009 H   0  0  0  0  0  0  0  0  0  0  0  0
   -1.0392   -3.4028    1.6958 H   0  0  0  0  0  0  0  0  0  0  0  0
   -2.4392   -3.3597    0.6033 H   0  0  0  0  0  0  0  0  0  0  0  0
   -0.8909   -2.8014   -1.3534 H   0  0  0  0  0  0  0  0  0  0  0  0
   -0.6133   -4.3659   -0.5885 H   0  0  0  0  0  0  0  0  0  0  0  0
    1.2621   -2.9270    0.8393 H   0  0  0  0  0  0  0  0  0  0  0  0
    1.6076   -3.7412   -0.7235 H   0  0  0  0  0  0  0  0  0  0  0  0
  1 22  1  0  0  0  0
  1  5  1  0  0  0  0
  3 13  1  0  0  0  0
  3 14  1  0  0  0  0
  5 10  1  0  0  0  0
  5 23  1  1  0  0  0
  6  7  1  0  0  0  0
  6  5  1  0  0  0  0
  7  8  1  0  0  0  0
  7 26  1  0  0  0  0
  8 28  1  0  0  0  0
  8  9  1  0  0  0  0
  9 31  1  0  0  0  0
  9 30  1  0  0  0  0
 10 32  1  6  0  0  0
 10  9  1  0  0  0  0
 10  2  1  0  0  0  0
 11  2  1  0  0  0  0
 11 34  1  0  0  0  0
 12 13  1  0  0  0  0
 12 11  1  0  0  0  0
 13 38  1  0  0  0  0
 14 19  1  0  0  0  0
 14 39  1  1  0  0  0
 15 16  1  0  0  0  0
 15 14  1  0  0  0  0
 16 17  1  0  0  0  0
 16 42  1  0  0  0  0
 17 45  1  0  0  0  0
 17 18  1  0  0  0  0
 18 46  1  0  0  0  0
 18 47  1  0  0  0  0
 19 48  1  6  0  0  0
 19 18  1  0  0  0  0
 19  4  1  0  0  0  0
 20  4  1  0  0  0  0
 20 49  1  0  0  0  0
 21 22  1  0  0  0  0
 21 20  1  0  0  0  0
 22 53  1  0  0  0  0
 24  6  1  0  0  0  0
 25  6  1  0  0  0  0
 27  7  1  0  0  0  0
 29  8  1  0  0  0  0
 33 11  1  0  0  0  0
 35 12  1  0  0  0  0
 36 12  1  0  0  0  0
 37 13  1  0  0  0  0
 40 15  1  0  0  0  0
 41 15  1  0  0  0  0
 43 16  1  0  0  0  0
 44 17  1  0  0  0  0
 50 20  1  0  0  0  0
 51 21  1  0  0  0  0
 52 21  1  0  0  0  0
 54 22  1  0  0  0  0
M  END
