1,3,4,6
 OpenBabel05122313063D

 36 36  0  0  0  0  0  0  0  0999 V2000
   -0.9106   -1.6840    1.6788 S   0  0  0  0  0  0  0  0  0  0  0  0
   -3.0658   -0.8104   -0.3982 S   0  0  0  0  0  0  0  0  0  0  0  0
   -1.1858    2.1094   -1.2243 S   0  0  0  0  0  0  0  0  0  0  0  0
    1.2290    1.8470    1.4148 S   0  0  0  0  0  0  0  0  0  0  0  0
    3.2777    0.4760   -0.4923 S   0  0  0  0  0  0  0  0  0  0  0  0
    0.8688   -1.8859   -1.4773 S   0  0  0  0  0  0  0  0  0  0  0  0
   -2.6618   -1.7475    1.1087 C   0  0  0  0  0  0  0  0  0  0  0  0
   -3.2604    0.8827    0.2964 C   0  0  0  0  0  0  0  0  0  0  0  0
   -2.9573    1.9389   -0.7635 C   0  0  0  0  0  0  0  0  0  0  0  0
   -0.6094    3.3845   -0.0216 C   0  0  0  0  0  0  0  0  0  0  0  0
    0.8821    3.2479    0.2707 C   0  0  0  0  0  0  0  0  0  0  0  0
    2.9871    1.4931    0.9843 C   0  0  0  0  0  0  0  0  0  0  0  0
    3.0460   -1.2039    0.2239 C   0  0  0  0  0  0  0  0  0  0  0  0
    2.5720   -2.1917   -0.8387 C   0  0  0  0  0  0  0  0  0  0  0  0
   -0.1074   -3.1983   -0.6486 C   0  0  0  0  0  0  0  0  0  0  0  0
   -0.1958   -3.1698    0.8759 C   0  0  0  0  0  0  0  0  0  0  0  0
   -2.9414   -2.8035    0.9223 H   0  0  0  0  0  0  0  0  0  0  0  0
   -3.2764   -1.3876    1.9571 H   0  0  0  0  0  0  0  0  0  0  0  0
   -4.3062    1.0017    0.6498 H   0  0  0  0  0  0  0  0  0  0  0  0
   -2.5795    0.9973    1.1667 H   0  0  0  0  0  0  0  0  0  0  0  0
   -3.3113    2.9365   -0.4330 H   0  0  0  0  0  0  0  0  0  0  0  0
   -3.4832    1.7182   -1.7147 H   0  0  0  0  0  0  0  0  0  0  0  0
   -0.8030    4.3788   -0.4723 H   0  0  0  0  0  0  0  0  0  0  0  0
   -1.2095    3.3055    0.9087 H   0  0  0  0  0  0  0  0  0  0  0  0
    1.2464    4.1771    0.7537 H   0  0  0  0  0  0  0  0  0  0  0  0
    1.4596    3.0896   -0.6650 H   0  0  0  0  0  0  0  0  0  0  0  0
    3.5134    2.4554    0.8290 H   0  0  0  0  0  0  0  0  0  0  0  0
    3.4258    1.0152    1.8820 H   0  0  0  0  0  0  0  0  0  0  0  0
    4.0150   -1.5467    0.6444 H   0  0  0  0  0  0  0  0  0  0  0  0
    2.3039   -1.1351    1.0474 H   0  0  0  0  0  0  0  0  0  0  0  0
    2.6055   -3.2288   -0.4465 H   0  0  0  0  0  0  0  0  0  0  0  0
    3.2341   -2.1670   -1.7280 H   0  0  0  0  0  0  0  0  0  0  0  0
   -1.1091   -3.1031   -1.1161 H   0  0  0  0  0  0  0  0  0  0  0  0
    0.3035   -4.1778   -0.9714 H   0  0  0  0  0  0  0  0  0  0  0  0
    0.8075   -3.2641    1.3411 H   0  0  0  0  0  0  0  0  0  0  0  0
   -0.7809   -4.0468    1.2247 H   0  0  0  0  0  0  0  0  0  0  0  0
  2  8  1  0  0  0  0
  2  7  1  0  0  0  0
  3  9  1  0  0  0  0
  3 10  1  0  0  0  0
  5 13  1  0  0  0  0
  5 12  1  0  0  0  0
  6 14  1  0  0  0  0
  6 15  1  0  0  0  0
  7  1  1  0  0  0  0
  7 18  1  0  0  0  0
  8 19  1  0  0  0  0
  8 20  1  0  0  0  0
  9 21  1  0  0  0  0
  9  8  1  0  0  0  0
 10 11  1  0  0  0  0
 10 24  1  0  0  0  0
 11 25  1  0  0  0  0
 11  4  1  0  0  0  0
 12  4  1  0  0  0  0
 12 28  1  0  0  0  0
 13 29  1  0  0  0  0
 13 30  1  0  0  0  0
 14 31  1  0  0  0  0
 14 13  1  0  0  0  0
 15 16  1  0  0  0  0
 16 36  1  0  0  0  0
 16 35  1  0  0  0  0
 16  1  1  0  0  0  0
 17  7  1  0  0  0  0
 22  9  1  0  0  0  0
 23 10  1  0  0  0  0
 26 11  1  0  0  0  0
 27 12  1  0  0  0  0
 32 14  1  0  0  0  0
 33 15  1  0  0  0  0
 34 15  1  0  0  0  0
M  END
