1
 OpenBabel05122313063D

  3  2  0  0  0  0  0  0  0  0999 V2000
    0.7714    1.4642   -1.8601 Se  0  0  0  0  0  0  0  0  0  0  0  0
    3.1277    2.2700   -0.1677 N   0  0  0  0  0  0  0  0  0  0  0  0
    2.2185    1.9859   -0.8781 C   0  0  0  0  0  0  0  0  0  0  0  0
  1  3  1  0  0  0  0
  3  2  3  0  0  0  0
M  END
