4
 OpenBabel05122313063D

 19 20  0  0  1  0  0  0  0  0999 V2000
   -3.5838    0.3694    0.4812 N   0  0  0  0  0  0  0  0  0  0  0  0
   -2.7687    0.8220    0.9928 H   0  0  0  0  0  0  0  0  0  0  0  0
   -4.7166   -0.9323   -0.8953 N   0  0  0  0  0  0  0  0  0  0  0  0
   -1.8907   -1.4531   -1.0070 Se  0  0  0  0  0  1  0  0  0  0  0  0
   -3.4518   -0.6199   -0.4384 C   0  0  2  0  0  3  0  0  0  0  0  0
   -4.9173    0.7121    0.6305 C   0  0  0  0  0  0  0  0  0  0  0  0
   -5.6518   -0.1269   -0.2452 C   0  0  0  0  0  0  0  0  0  0  0  0
   -7.0476   -0.0477   -0.3387 C   0  0  0  0  0  0  0  0  0  0  0  0
   -7.6201   -0.7005   -1.0124 H   0  0  0  0  0  0  0  0  0  0  0  0
   -7.6842    0.9065    0.4720 C   0  0  0  0  0  0  0  0  0  0  0  0
   -8.7791    1.0013    0.4280 H   0  0  0  0  0  0  0  0  0  0  0  0
   -6.9521    1.7453    1.3414 C   0  0  0  0  0  0  0  0  0  0  0  0
   -7.4902    2.4799    1.9583 H   0  0  0  0  0  0  0  0  0  0  0  0
   -5.5543    1.6644    1.4373 C   0  0  0  0  0  0  0  0  0  0  0  0
   -4.9745    2.3132    2.1082 H   0  0  0  0  0  0  0  0  0  0  0  0
   -5.0338   -1.9319   -1.8941 C   0  0  0  0  0  0  0  0  0  0  0  0
   -4.0925   -2.2521   -2.3799 H   0  0  0  0  0  0  0  0  0  0  0  0
   -5.7103   -1.4986   -2.6569 H   0  0  0  0  0  0  0  0  0  0  0  0
   -5.5225   -2.8139   -1.4317 H   0  0  0  0  0  0  0  0  0  0  0  0
  1  6  1  0  0  0  0
  1  2  1  0  0  0  0
  3  5  1  0  0  0  0
  3  7  1  0  0  0  0
  5  4  1  1  0  0  0
  5  1  1  0  0  0  0
  6 14  1  0  0  0  0
  7  6  2  0  0  0  0
  8  7  1  0  0  0  0
  8 10  2  0  0  0  0
  9  8  1  0  0  0  0
 10 12  1  0  0  0  0
 11 10  1  0  0  0  0
 12 14  2  0  0  0  0
 12 13  1  0  0  0  0
 14 15  1  0  0  0  0
 16 19  1  0  0  0  0
 16  3  1  0  0  0  0
 17 16  1  0  0  0  0
 18 16  1  0  0  0  0
M  END
