1
 OpenBabel05122313063D

 26 28  0  0  1  0  0  0  0  0999 V2000
    0.3030   -1.8369   -0.3886 Se  0  0  0  0  0  1  0  0  0  0  0  0
    2.5733    0.0010   -0.8947 C   0  0  0  0  0  0  0  0  0  0  0  0
    1.9463    0.8276   -0.5070 H   0  0  0  0  0  0  0  0  0  0  0  0
    2.3221   -0.1087   -1.9704 H   0  0  0  0  0  0  0  0  0  0  0  0
    4.5972   -2.1162   -0.5312 C   0  0  2  0  0  0  0  0  0  0  0  0
    5.2078   -2.9506   -0.9422 H   0  0  0  0  0  0  0  0  0  0  0  0
    3.0980   -2.4473   -0.7154 C   0  0  0  0  0  0  0  0  0  0  0  0
    2.8652   -2.5913   -1.7924 H   0  0  0  0  0  0  0  0  0  0  0  0
    2.8488   -3.3986   -0.1970 H   0  0  0  0  0  0  0  0  0  0  0  0
    2.5498   -1.1313    1.3502 C   0  0  0  0  0  0  0  0  0  0  0  0
    2.2985   -2.0687    1.8912 H   0  0  0  0  0  0  0  0  0  0  0  0
    1.9086   -0.3255    1.7657 H   0  0  0  0  0  0  0  0  0  0  0  0
    2.2451   -1.2981   -0.1460 C   0  0  2  0  0  0  0  0  0  0  0  0
    4.0449   -0.7899    1.5359 C   0  0  1  0  0  0  0  0  0  0  0  0
    4.2576   -0.6621    2.6199 H   0  0  0  0  0  0  0  0  0  0  0  0
    4.9052   -1.9360    0.9684 C   0  0  0  0  0  0  0  0  0  0  0  0
    4.6906   -2.8793    1.5169 H   0  0  0  0  0  0  0  0  0  0  0  0
    5.9868   -1.7155    1.1104 H   0  0  0  0  0  0  0  0  0  0  0  0
    4.0693    0.3365   -0.7142 C   0  0  1  0  0  0  0  0  0  0  0  0
    4.2952    1.2803   -1.2567 H   0  0  0  0  0  0  0  0  0  0  0  0
    4.3686    0.5172    0.7865 C   0  0  0  0  0  0  0  0  0  0  0  0
    5.4368    0.7918    0.9372 H   0  0  0  0  0  0  0  0  0  0  0  0
    3.7527    1.3475    1.1929 H   0  0  0  0  0  0  0  0  0  0  0  0
    4.9297   -0.8099   -1.2791 C   0  0  0  0  0  0  0  0  0  0  0  0
    4.7309   -0.9333   -2.3661 H   0  0  0  0  0  0  0  0  0  0  0  0
    6.0120   -0.5739   -1.1700 H   0  0  0  0  0  0  0  0  0  0  0  0
  2 19  1  0  0  0  0
  2  3  1  0  0  0  0
  2 13  1  0  0  0  0
  4  2  1  0  0  0  0
  5  6  1  6  0  0  0
  5 16  1  0  0  0  0
  7  5  1  0  0  0  0
  7  9  1  0  0  0  0
  7 13  1  0  0  0  0
  8  7  1  0  0  0  0
 10 14  1  0  0  0  0
 10 12  1  0  0  0  0
 10 11  1  0  0  0  0
 13  1  1  6  0  0  0
 13 10  1  0  0  0  0
 14 15  1  1  0  0  0
 16 18  1  0  0  0  0
 16 17  1  0  0  0  0
 16 14  1  0  0  0  0
 19 20  1  6  0  0  0
 19 21  1  0  0  0  0
 21 22  1  0  0  0  0
 21 23  1  0  0  0  0
 21 14  1  0  0  0  0
 24 26  1  0  0  0  0
 24 19  1  0  0  0  0
 24  5  1  0  0  0  0
 25 24  1  0  0  0  0
M  END
