1,2,3
 OpenBabel05122313063D

 40 40  0  0  0  0  0  0  0  0999 V2000
    0.3433    1.7243   -0.0076 P   0  0  2  0  0  0  0  0  0  0  0  0
   -0.6831   -0.0015    1.7882 P   0  0  1  0  0  0  0  0  0  0  0  0
    0.3433   -1.7243   -0.0104 P   0  0  1  0  0  0  0  0  0  0  0  0
    1.9453    0.0014   -1.6504 P   0  0  1  0  0  0  0  0  0  0  0  0
    0.3100    1.4284    1.7280 N   0  0  0  0  0  0  0  0  0  0  0  0
    0.3095   -1.4318    1.7258 N   0  0  0  0  0  0  0  0  0  0  0  0
    1.9500   -1.4206   -0.5859 N   0  0  0  0  0  0  0  0  0  0  0  0
    1.9498    1.4223   -0.5844 N   0  0  0  0  0  0  0  0  0  0  0  0
    0.1833    3.5533   -0.1040 C   0  0  0  0  0  0  0  0  0  0  0  0
   -1.3592   -0.0025    3.4948 C   0  0  0  0  0  0  0  0  0  0  0  0
    0.1839   -3.5532   -0.1104 C   0  0  0  0  0  0  0  0  0  0  0  0
    3.7331    0.0016   -2.1619 C   0  0  0  0  0  0  0  0  0  0  0  0
    1.1835    1.9660    2.7564 C   0  0  0  0  0  0  0  0  0  0  0  0
    1.1826   -1.9712    2.7536 C   0  0  0  0  0  0  0  0  0  0  0  0
    3.1313   -2.0176    0.0251 C   0  0  0  0  0  0  0  0  0  0  0  0
    3.1313    2.0178    0.0278 C   0  0  0  0  0  0  0  0  0  0  0  0
    0.2501    3.8415   -1.1707 H   0  0  0  0  0  0  0  0  0  0  0  0
   -0.8206    3.8193    0.2791 H   0  0  0  0  0  0  0  0  0  0  0  0
    0.9551    4.1040    0.4703 H   0  0  0  0  0  0  0  0  0  0  0  0
   -1.9930    0.8979    3.6079 H   0  0  0  0  0  0  0  0  0  0  0  0
   -0.5792   -0.0034    4.2823 H   0  0  0  0  0  0  0  0  0  0  0  0
   -1.9940   -0.9024    3.6068 H   0  0  0  0  0  0  0  0  0  0  0  0
    0.2523   -3.8392   -1.1777 H   0  0  0  0  0  0  0  0  0  0  0  0
   -0.8203   -3.8203    0.2708 H   0  0  0  0  0  0  0  0  0  0  0  0
    0.9551   -4.1048    0.4639 H   0  0  0  0  0  0  0  0  0  0  0  0
    4.4851    0.0017   -1.3476 H   0  0  0  0  0  0  0  0  0  0  0  0
    3.8913    0.8947   -2.7988 H   0  0  0  0  0  0  0  0  0  0  0  0
    3.8913   -0.8917   -2.7984 H   0  0  0  0  0  0  0  0  0  0  0  0
    1.4308    3.0254    2.5371 H   0  0  0  0  0  0  0  0  0  0  0  0
    2.1425    1.4096    2.8642 H   0  0  0  0  0  0  0  0  0  0  0  0
    0.6716    1.9582    3.7418 H   0  0  0  0  0  0  0  0  0  0  0  0
    1.4300   -3.0303    2.5326 H   0  0  0  0  0  0  0  0  0  0  0  0
    0.6704   -1.9650    3.7387 H   0  0  0  0  0  0  0  0  0  0  0  0
    2.1417   -1.4151    2.8627 H   0  0  0  0  0  0  0  0  0  0  0  0
    3.9127   -2.2370   -0.7315 H   0  0  0  0  0  0  0  0  0  0  0  0
    2.8729   -2.9858    0.4998 H   0  0  0  0  0  0  0  0  0  0  0  0
    3.5889   -1.3745    0.8111 H   0  0  0  0  0  0  0  0  0  0  0  0
    2.8734    2.9859    0.5032 H   0  0  0  0  0  0  0  0  0  0  0  0
    3.9130    2.2375   -0.7284 H   0  0  0  0  0  0  0  0  0  0  0  0
    3.5882    1.3737    0.8134 H   0  0  0  0  0  0  0  0  0  0  0  0
  1  9  1  1  0  0  0
  1  5  1  0  0  0  0
  2 10  1  1  0  0  0
  3 11  1  1  0  0  0
  3  6  1  0  0  0  0
  4 12  1  6  0  0  0
  4  7  1  0  0  0  0
  4  8  1  0  0  0  0
  5  2  1  0  0  0  0
  5 13  1  0  0  0  0
  6  2  1  0  0  0  0
  6 14  1  0  0  0  0
  7  3  1  0  0  0  0
  7 15  1  0  0  0  0
  8  1  1  0  0  0  0
  8 16  1  0  0  0  0
  9 18  1  0  0  0  0
  9 19  1  0  0  0  0
 10 22  1  0  0  0  0
 10 20  1  0  0  0  0
 10 21  1  0  0  0  0
 11 24  1  0  0  0  0
 11 25  1  0  0  0  0
 12 26  1  0  0  0  0
 13 30  1  0  0  0  0
 13 31  1  0  0  0  0
 14 34  1  0  0  0  0
 14 33  1  0  0  0  0
 15 36  1  0  0  0  0
 15 37  1  0  0  0  0
 16 38  1  0  0  0  0
 16 40  1  0  0  0  0
 17  9  1  0  0  0  0
 23 11  1  0  0  0  0
 27 12  1  0  0  0  0
 28 12  1  0  0  0  0
 29 13  1  0  0  0  0
 32 14  1  0  0  0  0
 35 15  1  0  0  0  0
 39 16  1  0  0  0  0
M  END
