2,3,4
 OpenBabel05122313063D

 50 49  0  0  0  0  0  0  0  0999 V2000
   -3.2634    0.0066   -0.3596 Si  0  0  0  0  0  0  0  0  0  0  0  0
   -1.0633   -1.5754    1.1248 P   0  0  0  0  0  0  0  0  0  0  0  0
   -1.1137    1.5524    1.2372 P   0  0  0  0  0  0  0  0  0  0  0  0
   -0.3642    0.0953   -1.4629 P   0  0  0  0  0  0  0  0  0  0  0  0
   -5.1186   -0.0102   -0.8782 C   0  0  0  0  0  0  0  0  0  0  0  0
   -2.9160   -1.3402    0.9426 C   0  0  0  0  0  0  0  0  0  0  0  0
   -3.3220   -0.9885    1.9152 H   0  0  0  0  0  0  0  0  0  0  0  0
   -3.4228   -2.3008    0.7088 H   0  0  0  0  0  0  0  0  0  0  0  0
   -2.1469   -0.3060   -1.8739 C   0  0  0  0  0  0  0  0  0  0  0  0
   -2.2077   -1.3841   -2.1348 H   0  0  0  0  0  0  0  0  0  0  0  0
   -2.4860    0.2614   -2.7671 H   0  0  0  0  0  0  0  0  0  0  0  0
   -2.7865    1.6883    0.3955 C   0  0  0  0  0  0  0  0  0  0  0  0
   -2.6988    2.4275   -0.4292 H   0  0  0  0  0  0  0  0  0  0  0  0
   -3.5592    2.0739    1.0945 H   0  0  0  0  0  0  0  0  0  0  0  0
   -5.4231   -1.3187   -1.6302 C   0  0  0  0  0  0  0  0  0  0  0  0
   -5.9972    0.0804    0.3828 C   0  0  0  0  0  0  0  0  0  0  0  0
   -5.4003    1.1939   -1.7952 C   0  0  0  0  0  0  0  0  0  0  0  0
   -0.9024   -2.1961    2.8713 C   0  0  0  0  0  0  0  0  0  0  0  0
    0.1420   -2.5364    3.0180 H   0  0  0  0  0  0  0  0  0  0  0  0
   -1.5993   -3.0336    3.0816 H   0  0  0  0  0  0  0  0  0  0  0  0
   -1.0945   -1.3667    3.5782 H   0  0  0  0  0  0  0  0  0  0  0  0
    0.5913   -1.0179   -2.5979 C   0  0  0  0  0  0  0  0  0  0  0  0
    0.2733   -0.9046   -3.6546 H   0  0  0  0  0  0  0  0  0  0  0  0
    0.4607   -2.0706   -2.2829 H   0  0  0  0  0  0  0  0  0  0  0  0
    1.6664   -0.7655   -2.4991 H   0  0  0  0  0  0  0  0  0  0  0  0
   -0.8541   -3.1921    0.2221 C   0  0  0  0  0  0  0  0  0  0  0  0
   -1.1212   -3.0628   -0.8445 H   0  0  0  0  0  0  0  0  0  0  0  0
   -1.4915   -3.9885    0.6584 H   0  0  0  0  0  0  0  0  0  0  0  0
    0.2086   -3.4987    0.2769 H   0  0  0  0  0  0  0  0  0  0  0  0
   -0.4775    3.2957    1.1115 C   0  0  0  0  0  0  0  0  0  0  0  0
    0.4374    3.3780    1.7301 H   0  0  0  0  0  0  0  0  0  0  0  0
   -1.2296    4.0348    1.4562 H   0  0  0  0  0  0  0  0  0  0  0  0
   -0.1973    3.5137    0.0634 H   0  0  0  0  0  0  0  0  0  0  0  0
   -0.1400    1.7081   -2.3612 C   0  0  0  0  0  0  0  0  0  0  0  0
    0.9066    2.0437   -2.2217 H   0  0  0  0  0  0  0  0  0  0  0  0
   -0.8118    2.4759   -1.9313 H   0  0  0  0  0  0  0  0  0  0  0  0
   -0.3553    1.6065   -3.4451 H   0  0  0  0  0  0  0  0  0  0  0  0
   -1.6339    1.5676    3.0277 C   0  0  0  0  0  0  0  0  0  0  0  0
   -2.2544    0.6766    3.2451 H   0  0  0  0  0  0  0  0  0  0  0  0
   -2.2118    2.4796    3.2848 H   0  0  0  0  0  0  0  0  0  0  0  0
   -0.7252    1.5174    3.6598 H   0  0  0  0  0  0  0  0  0  0  0  0
   -7.0757    0.0893    0.1080 H   0  0  0  0  0  0  0  0  0  0  0  0
   -5.7992    1.0065    0.9621 H   0  0  0  0  0  0  0  0  0  0  0  0
   -5.2088    2.1589   -1.2819 H   0  0  0  0  0  0  0  0  0  0  0  0
   -5.2197   -2.2142   -1.0063 H   0  0  0  0  0  0  0  0  0  0  0  0
   -4.8230   -1.4119   -2.5590 H   0  0  0  0  0  0  0  0  0  0  0  0
   -6.4958   -1.3603   -1.9241 H   0  0  0  0  0  0  0  0  0  0  0  0
   -6.4648    1.1974   -2.1202 H   0  0  0  0  0  0  0  0  0  0  0  0
   -4.7778    1.1719   -2.7141 H   0  0  0  0  0  0  0  0  0  0  0  0
   -5.8368   -0.7825    1.0619 H   0  0  0  0  0  0  0  0  0  0  0  0
  1 12  1  0  0  0  0
  1  6  1  0  0  0  0
  2 18  1  0  0  0  0
  3 38  1  0  0  0  0
  5  1  1  0  0  0  0
  5 16  1  0  0  0  0
  6  2  1  0  0  0  0
  6  7  1  0  0  0  0
  8  6  1  0  0  0  0
  9  4  1  0  0  0  0
  9  1  1  0  0  0  0
 10  9  1  0  0  0  0
 11  9  1  0  0  0  0
 12 14  1  0  0  0  0
 12  3  1  0  0  0  0
 13 12  1  0  0  0  0
 15 45  1  0  0  0  0
 15  5  1  0  0  0  0
 16 43  1  0  0  0  0
 16 50  1  0  0  0  0
 17 44  1  0  0  0  0
 17  5  1  0  0  0  0
 18 19  1  0  0  0  0
 18 20  1  0  0  0  0
 18 21  1  0  0  0  0
 22 25  1  0  0  0  0
 22 24  1  0  0  0  0
 22  4  1  0  0  0  0
 23 22  1  0  0  0  0
 26 29  1  0  0  0  0
 26 28  1  0  0  0  0
 26  2  1  0  0  0  0
 27 26  1  0  0  0  0
 30  3  1  0  0  0  0
 30 32  1  0  0  0  0
 30 31  1  0  0  0  0
 33 30  1  0  0  0  0
 34 35  1  0  0  0  0
 34 36  1  0  0  0  0
 34  4  1  0  0  0  0
 37 34  1  0  0  0  0
 38 39  1  0  0  0  0
 38 40  1  0  0  0  0
 38 41  1  0  0  0  0
 42 16  1  0  0  0  0
 46 15  1  0  0  0  0
 47 15  1  0  0  0  0
 48 17  1  0  0  0  0
 49 17  1  0  0  0  0
M  END
