1,2,4
 OpenBabel05122313063D

 68 73  0  0  0  0  0  0  0  0999 V2000
    1.8043   -0.0374   -0.0279 P   0  0  0  0  0  0  0  0  0  0  0  0
    0.0082    0.8983    2.2856 P   0  0  0  0  0  0  0  0  0  0  0  0
    0.1513    1.1758    3.7056 H   0  0  0  0  0  0  0  0  0  0  0  0
   -1.7654    0.0802   -0.0522 P   0  0  0  0  0  0  0  0  0  0  0  0
    3.4190   -0.8244    0.4510 C   0  0  0  0  0  0  0  0  0  0  0  0
    4.5583   -0.9165   -0.3721 C   0  0  0  0  0  0  0  0  0  0  0  0
    4.5226   -0.5405   -1.4059 H   0  0  0  0  0  0  0  0  0  0  0  0
    5.7413   -1.4908    0.1216 C   0  0  0  0  0  0  0  0  0  0  0  0
    6.6251   -1.5636   -0.5313 H   0  0  0  0  0  0  0  0  0  0  0  0
    5.8027   -1.9644    1.4418 C   0  0  0  0  0  0  0  0  0  0  0  0
    6.7324   -2.4118    1.8254 H   0  0  0  0  0  0  0  0  0  0  0  0
    4.6718   -1.8663    2.2704 C   0  0  0  0  0  0  0  0  0  0  0  0
    4.7122   -2.2368    3.3065 H   0  0  0  0  0  0  0  0  0  0  0  0
    3.4867   -1.3075    1.7743 C   0  0  0  0  0  0  0  0  0  0  0  0
    2.5771   -1.2440    2.3957 H   0  0  0  0  0  0  0  0  0  0  0  0
    1.9707    0.1381   -1.8512 C   0  0  0  0  0  0  0  0  0  0  0  0
    2.1771   -1.0347   -2.6138 C   0  0  0  0  0  0  0  0  0  0  0  0
    2.3031   -2.0013   -2.0994 H   0  0  0  0  0  0  0  0  0  0  0  0
    2.2385   -0.9791   -4.0124 C   0  0  0  0  0  0  0  0  0  0  0  0
    2.4173   -1.9005   -4.5881 H   0  0  0  0  0  0  0  0  0  0  0  0
    2.0716    0.2478   -4.6771 C   0  0  0  0  0  0  0  0  0  0  0  0
    2.1182    0.2937   -5.7757 H   0  0  0  0  0  0  0  0  0  0  0  0
    1.8252    1.4097   -3.9306 C   0  0  0  0  0  0  0  0  0  0  0  0
    1.6641    2.3704   -4.4425 H   0  0  0  0  0  0  0  0  0  0  0  0
    1.7712    1.3580   -2.5297 C   0  0  0  0  0  0  0  0  0  0  0  0
    1.5694    2.2758   -1.9589 H   0  0  0  0  0  0  0  0  0  0  0  0
    2.1460    1.6703    0.6404 C   0  0  0  0  0  0  0  0  0  0  0  0
    1.3398    2.0875    1.7231 C   0  0  0  0  0  0  0  0  0  0  0  0
    1.5875    3.3318    2.3336 C   0  0  0  0  0  0  0  0  0  0  0  0
    0.9656    3.6612    3.1803 H   0  0  0  0  0  0  0  0  0  0  0  0
    2.6236    4.1561    1.8695 C   0  0  0  0  0  0  0  0  0  0  0  0
    2.8079    5.1294    2.3500 H   0  0  0  0  0  0  0  0  0  0  0  0
    3.4320    3.7343    0.8002 C   0  0  0  0  0  0  0  0  0  0  0  0
    4.2545    4.3735    0.4441 H   0  0  0  0  0  0  0  0  0  0  0  0
    3.2006    2.4903    0.1953 C   0  0  0  0  0  0  0  0  0  0  0  0
    3.8504    2.1478   -0.6250 H   0  0  0  0  0  0  0  0  0  0  0  0
   -1.5458    1.8997    2.0507 C   0  0  0  0  0  0  0  0  0  0  0  0
   -2.3546    1.5333    0.9519 C   0  0  0  0  0  0  0  0  0  0  0  0
   -3.5747    2.1970    0.7237 C   0  0  0  0  0  0  0  0  0  0  0  0
   -4.2152    1.8862   -0.1166 H   0  0  0  0  0  0  0  0  0  0  0  0
   -3.9838    3.2334    1.5770 C   0  0  0  0  0  0  0  0  0  0  0  0
   -4.9412    3.7467    1.3987 H   0  0  0  0  0  0  0  0  0  0  0  0
   -3.1807    3.5998    2.6703 C   0  0  0  0  0  0  0  0  0  0  0  0
   -3.5082    4.4018    3.3499 H   0  0  0  0  0  0  0  0  0  0  0  0
   -1.9676    2.9348    2.9076 C   0  0  0  0  0  0  0  0  0  0  0  0
   -1.3527    3.2116    3.7784 H   0  0  0  0  0  0  0  0  0  0  0  0
   -3.3400   -0.9042   -0.0702 C   0  0  0  0  0  0  0  0  0  0  0  0
   -4.0869   -1.2362   -1.2167 C   0  0  0  0  0  0  0  0  0  0  0  0
   -3.7790   -0.8564   -2.2021 H   0  0  0  0  0  0  0  0  0  0  0  0
   -5.2287   -2.0495   -1.1084 C   0  0  0  0  0  0  0  0  0  0  0  0
   -5.8006   -2.3049   -2.0141 H   0  0  0  0  0  0  0  0  0  0  0  0
   -5.6450   -2.5275    0.1429 C   0  0  0  0  0  0  0  0  0  0  0  0
   -6.5402   -3.1627    0.2237 H   0  0  0  0  0  0  0  0  0  0  0  0
   -4.9133   -2.1859    1.2946 C   0  0  0  0  0  0  0  0  0  0  0  0
   -5.2366   -2.5491    2.2826 H   0  0  0  0  0  0  0  0  0  0  0  0
   -3.7678   -1.3877    1.1869 C   0  0  0  0  0  0  0  0  0  0  0  0
   -3.1789   -1.1311    2.0829 H   0  0  0  0  0  0  0  0  0  0  0  0
   -1.6884    0.7262   -1.7778 C   0  0  0  0  0  0  0  0  0  0  0  0
   -1.8523    2.0822   -2.1255 C   0  0  0  0  0  0  0  0  0  0  0  0
   -2.0642    2.8270   -1.3448 H   0  0  0  0  0  0  0  0  0  0  0  0
   -1.7519    2.4893   -3.4662 C   0  0  0  0  0  0  0  0  0  0  0  0
   -1.8848    3.5522   -3.7215 H   0  0  0  0  0  0  0  0  0  0  0  0
   -1.4941    1.5506   -4.4757 C   0  0  0  0  0  0  0  0  0  0  0  0
   -1.4234    1.8710   -5.5263 H   0  0  0  0  0  0  0  0  0  0  0  0
   -1.2992    0.2016   -4.1344 C   0  0  0  0  0  0  0  0  0  0  0  0
   -1.0603   -0.5371   -4.9140 H   0  0  0  0  0  0  0  0  0  0  0  0
   -1.3760   -0.2033   -2.7966 C   0  0  0  0  0  0  0  0  0  0  0  0
   -1.1858   -1.2543   -2.5291 H   0  0  0  0  0  0  0  0  0  0  0  0
  1  5  1  0  0  0  0
  1 27  1  0  0  0  0
  2  3  1  0  0  0  0
  4 38  1  0  0  0  0
  5 14  1  0  0  0  0
  6  8  1  0  0  0  0
  6  5  2  0  0  0  0
  7  6  1  0  0  0  0
  8 10  2  0  0  0  0
  9  8  1  0  0  0  0
 10 11  1  0  0  0  0
 10 12  1  0  0  0  0
 12 13  1  0  0  0  0
 14 12  2  0  0  0  0
 14 15  1  0  0  0  0
 16  1  1  0  0  0  0
 17 18  1  0  0  0  0
 17 16  2  0  0  0  0
 19 17  1  0  0  0  0
 20 19  1  0  0  0  0
 21 19  2  0  0  0  0
 21 23  1  0  0  0  0
 22 21  1  0  0  0  0
 23 25  2  0  0  0  0
 24 23  1  0  0  0  0
 25 26  1  0  0  0  0
 25 16  1  0  0  0  0
 27 28  1  0  0  0  0
 28  2  1  0  0  0  0
 28 29  2  0  0  0  0
 29 30  1  0  0  0  0
 31 29  1  0  0  0  0
 31 32  1  0  0  0  0
 33 31  2  0  0  0  0
 34 33  1  0  0  0  0
 35 27  2  0  0  0  0
 35 33  1  0  0  0  0
 36 35  1  0  0  0  0
 37  2  1  0  0  0  0
 37 45  1  0  0  0  0
 38 37  2  0  0  0  0
 39 38  1  0  0  0  0
 39 41  2  0  0  0  0
 40 39  1  0  0  0  0
 41 43  1  0  0  0  0
 42 41  1  0  0  0  0
 43 45  2  0  0  0  0
 43 44  1  0  0  0  0
 45 46  1  0  0  0  0
 47  4  1  0  0  0  0
 47 56  1  0  0  0  0
 48 50  1  0  0  0  0
 48 47  2  0  0  0  0
 49 48  1  0  0  0  0
 50 52  2  0  0  0  0
 51 50  1  0  0  0  0
 52 53  1  0  0  0  0
 52 54  1  0  0  0  0
 54 55  1  0  0  0  0
 56 54  2  0  0  0  0
 56 57  1  0  0  0  0
 58  4  1  0  0  0  0
 59 58  1  0  0  0  0
 59 60  1  0  0  0  0
 61 59  2  0  0  0  0
 62 61  1  0  0  0  0
 63 65  2  0  0  0  0
 63 61  1  0  0  0  0
 64 63  1  0  0  0  0
 65 67  1  0  0  0  0
 66 65  1  0  0  0  0
 67 68  1  0  0  0  0
 67 58  2  0  0  0  0
M  END
