1,2,3
 OpenBabel05122313063D

 76 76  0  0  0  0  0  0  0  0999 V2000
    0.6250   -1.2595   -1.5276 P   0  0  0  0  0  0  0  0  0  0  0  0
   -2.2351   -0.2670   -0.2427 P   0  0  0  0  0  0  0  0  0  0  0  0
    2.0570    1.3576   -0.2630 P   0  0  0  0  0  0  0  0  0  0  0  0
   -2.6531   -1.4507    0.8618 O   0  0  0  0  0  0  0  0  0  0  0  0
   -3.3717    0.9213   -0.0075 O   0  0  0  0  0  0  0  0  0  0  0  0
    3.1558    0.6463    0.7597 O   0  0  0  0  0  0  0  0  0  0  0  0
    2.3331    2.9614    0.0823 O   0  0  0  0  0  0  0  0  0  0  0  0
    1.2379   -2.7578   -0.6127 C   0  0  0  0  0  0  0  0  0  0  0  0
    1.7031   -3.9211   -1.2617 C   0  0  0  0  0  0  0  0  0  0  0  0
    1.7286   -3.9763   -2.3620 H   0  0  0  0  0  0  0  0  0  0  0  0
    2.1402   -5.0247   -0.5146 C   0  0  0  0  0  0  0  0  0  0  0  0
    2.5016   -5.9274   -1.0309 H   0  0  0  0  0  0  0  0  0  0  0  0
    2.1168   -4.9797    0.8903 C   0  0  0  0  0  0  0  0  0  0  0  0
    2.4593   -5.8476    1.4744 H   0  0  0  0  0  0  0  0  0  0  0  0
    1.6576   -3.8260    1.5430 C   0  0  0  0  0  0  0  0  0  0  0  0
    1.6386   -3.7818    2.6429 H   0  0  0  0  0  0  0  0  0  0  0  0
    1.2228   -2.7225    0.7919 C   0  0  0  0  0  0  0  0  0  0  0  0
    0.8597   -1.7973    1.2727 H   0  0  0  0  0  0  0  0  0  0  0  0
   -0.6108   -2.0193   -2.7023 C   0  0  0  0  0  0  0  0  0  0  0  0
   -0.7554   -1.2667   -3.5070 H   0  0  0  0  0  0  0  0  0  0  0  0
   -0.1374   -2.9083   -3.1691 H   0  0  0  0  0  0  0  0  0  0  0  0
   -1.9609   -2.4001   -2.0865 C   0  0  0  0  0  0  0  0  0  0  0  0
   -1.8109   -3.0449   -1.1933 H   0  0  0  0  0  0  0  0  0  0  0  0
   -2.5138   -3.0238   -2.8209 H   0  0  0  0  0  0  0  0  0  0  0  0
   -2.8465   -1.2044   -1.7082 C   0  0  0  0  0  0  0  0  0  0  0  0
   -3.8714   -1.5531   -1.4680 H   0  0  0  0  0  0  0  0  0  0  0  0
   -2.9168   -0.4793   -2.5459 H   0  0  0  0  0  0  0  0  0  0  0  0
   -2.0403   -1.5660    2.1675 C   0  0  0  0  0  0  0  0  0  0  0  0
   -1.0047   -1.1625    2.0858 H   0  0  0  0  0  0  0  0  0  0  0  0
   -1.9910   -3.0527    2.4929 C   0  0  0  0  0  0  0  0  0  0  0  0
   -3.0152   -3.4774    2.5299 H   0  0  0  0  0  0  0  0  0  0  0  0
   -1.5099   -3.2181    3.4778 H   0  0  0  0  0  0  0  0  0  0  0  0
   -1.4094   -3.6013    1.7267 H   0  0  0  0  0  0  0  0  0  0  0  0
   -2.8108   -0.7448    3.1943 C   0  0  0  0  0  0  0  0  0  0  0  0
   -2.7860    0.3313    2.9380 H   0  0  0  0  0  0  0  0  0  0  0  0
   -2.3541   -0.8594    4.1979 H   0  0  0  0  0  0  0  0  0  0  0  0
   -3.8672   -1.0792    3.2515 H   0  0  0  0  0  0  0  0  0  0  0  0
   -4.7941    0.6646    0.1183 C   0  0  0  0  0  0  0  0  0  0  0  0
   -4.9440   -0.4182    0.3308 H   0  0  0  0  0  0  0  0  0  0  0  0
   -5.4920    1.0503   -1.1834 C   0  0  0  0  0  0  0  0  0  0  0  0
   -5.3009    2.1179   -1.4132 H   0  0  0  0  0  0  0  0  0  0  0  0
   -6.5874    0.9020   -1.0968 H   0  0  0  0  0  0  0  0  0  0  0  0
   -5.1308    0.4465   -2.0376 H   0  0  0  0  0  0  0  0  0  0  0  0
   -5.2967    1.4764    1.3066 C   0  0  0  0  0  0  0  0  0  0  0  0
   -4.7814    1.1738    2.2370 H   0  0  0  0  0  0  0  0  0  0  0  0
   -6.3870    1.3309    1.4448 H   0  0  0  0  0  0  0  0  0  0  0  0
   -5.1044    2.5553    1.1392 H   0  0  0  0  0  0  0  0  0  0  0  0
    1.9948   -0.9655   -2.7622 C   0  0  0  0  0  0  0  0  0  0  0  0
    2.2381   -1.9364   -3.2427 H   0  0  0  0  0  0  0  0  0  0  0  0
    1.5438   -0.3190   -3.5458 H   0  0  0  0  0  0  0  0  0  0  0  0
    3.2665   -0.3146   -2.2074 C   0  0  0  0  0  0  0  0  0  0  0  0
    3.6618   -0.9085   -1.3555 H   0  0  0  0  0  0  0  0  0  0  0  0
    4.0481   -0.3527   -2.9962 H   0  0  0  0  0  0  0  0  0  0  0  0
    3.0924    1.1436   -1.7651 C   0  0  0  0  0  0  0  0  0  0  0  0
    2.6200    1.7563   -2.5618 H   0  0  0  0  0  0  0  0  0  0  0  0
    4.0689    1.6059   -1.5158 H   0  0  0  0  0  0  0  0  0  0  0  0
    2.8649    0.3133    2.1356 C   0  0  0  0  0  0  0  0  0  0  0  0
    1.8071   -0.0359    2.1845 H   0  0  0  0  0  0  0  0  0  0  0  0
    3.0320    1.5383    3.0282 C   0  0  0  0  0  0  0  0  0  0  0  0
    4.0624    1.9392    2.9441 H   0  0  0  0  0  0  0  0  0  0  0  0
    2.8394    1.2720    4.0869 H   0  0  0  0  0  0  0  0  0  0  0  0
    2.3258    2.3381    2.7408 H   0  0  0  0  0  0  0  0  0  0  0  0
    3.8028   -0.8282    2.5056 C   0  0  0  0  0  0  0  0  0  0  0  0
    3.6568   -1.6915    1.8282 H   0  0  0  0  0  0  0  0  0  0  0  0
    3.6140   -1.1623    3.5456 H   0  0  0  0  0  0  0  0  0  0  0  0
    4.8592   -0.4983    2.4321 H   0  0  0  0  0  0  0  0  0  0  0  0
    1.3096    3.9873    0.0331 C   0  0  0  0  0  0  0  0  0  0  0  0
    0.3182    3.4830    0.0132 H   0  0  0  0  0  0  0  0  0  0  0  0
    1.4910    4.7973   -1.2457 C   0  0  0  0  0  0  0  0  0  0  0  0
    2.5028    5.2509   -1.2812 H   0  0  0  0  0  0  0  0  0  0  0  0
    0.7387    5.6095   -1.3015 H   0  0  0  0  0  0  0  0  0  0  0  0
    1.3573    4.1566   -2.1395 H   0  0  0  0  0  0  0  0  0  0  0  0
    1.4258    4.8188    1.3040 C   0  0  0  0  0  0  0  0  0  0  0  0
    1.2058    4.2015    2.1965 H   0  0  0  0  0  0  0  0  0  0  0  0
    0.7001    5.6562    1.2821 H   0  0  0  0  0  0  0  0  0  0  0  0
    2.4464    5.2412    1.4054 H   0  0  0  0  0  0  0  0  0  0  0  0
  1  8  1  0  0  0  0
  2  5  1  0  0  0  0
  2  4  1  0  0  0  0
  3  7  1  0  0  0  0
  3  6  1  0  0  0  0
  4 28  1  0  0  0  0
  5 38  1  0  0  0  0
  6 57  1  0  0  0  0
  8 17  1  0  0  0  0
  9  8  2  0  0  0  0
  9 11  1  0  0  0  0
 10  9  1  0  0  0  0
 11 13  2  0  0  0  0
 12 11  1  0  0  0  0
 13 14  1  0  0  0  0
 13 15  1  0  0  0  0
 15 16  1  0  0  0  0
 17 18  1  0  0  0  0
 17 15  2  0  0  0  0
 19 22  1  0  0  0  0
 19  1  1  0  0  0  0
 20 19  1  0  0  0  0
 21 19  1  0  0  0  0
 22 25  1  0  0  0  0
 22 23  1  0  0  0  0
 24 22  1  0  0  0  0
 25 26  1  0  0  0  0
 25  2  1  0  0  0  0
 27 25  1  0  0  0  0
 28 30  1  0  0  0  0
 28 34  1  0  0  0  0
 29 28  1  0  0  0  0
 30 31  1  0  0  0  0
 30 32  1  0  0  0  0
 33 30  1  0  0  0  0
 34 37  1  0  0  0  0
 34 36  1  0  0  0  0
 35 34  1  0  0  0  0
 38 39  1  0  0  0  0
 38 44  1  0  0  0  0
 40 42  1  0  0  0  0
 40 38  1  0  0  0  0
 41 40  1  0  0  0  0
 43 40  1  0  0  0  0
 44 46  1  0  0  0  0
 44 45  1  0  0  0  0
 47 44  1  0  0  0  0
 48 51  1  0  0  0  0
 48  1  1  0  0  0  0
 49 48  1  0  0  0  0
 50 48  1  0  0  0  0
 51 54  1  0  0  0  0
 51 52  1  0  0  0  0
 53 51  1  0  0  0  0
 54 56  1  0  0  0  0
 54  3  1  0  0  0  0
 55 54  1  0  0  0  0
 57 58  1  0  0  0  0
 57 63  1  0  0  0  0
 57 59  1  0  0  0  0
 59 61  1  0  0  0  0
 60 59  1  0  0  0  0
 62 59  1  0  0  0  0
 63 65  1  0  0  0  0
 64 63  1  0  0  0  0
 66 63  1  0  0  0  0
 67  7  1  0  0  0  0
 67 73  1  0  0  0  0
 68 67  1  0  0  0  0
 69 67  1  0  0  0  0
 70 69  1  0  0  0  0
 71 69  1  0  0  0  0
 72 69  1  0  0  0  0
 73 76  1  0  0  0  0
 73 74  1  0  0  0  0
 75 73  1  0  0  0  0
M  END
