1,3,4
 OpenBabel05122313063D

 79 84  0  0  0  0  0  0  0  0999 V2000
    1.5707    1.1066    0.7897 P   0  0  0  0  0  0  0  0  0  0  0  0
    2.8334   -1.3807   -0.8281 P   0  0  1  0  0  0  0  0  0  0  0  0
   -0.1756   -1.1166   -1.0832 P   0  0  1  0  0  0  0  0  0  0  0  0
   -2.5922    0.0999   -0.9938 P   0  0  0  0  0  0  0  0  0  0  0  0
    2.9068    0.4268   -0.2979 C   0  0  0  0  0  0  0  0  0  0  0  0
    1.3753   -1.3205   -2.0326 C   0  0  0  0  0  0  0  0  0  0  0  0
   -1.6855   -1.0447   -2.1733 C   0  0  0  0  0  0  0  0  0  0  0  0
    2.1463    2.8134    1.0858 C   0  0  0  0  0  0  0  0  0  0  0  0
    2.9944    3.1062    2.1724 C   0  0  0  0  0  0  0  0  0  0  0  0
    3.4808    4.4113    2.3387 C   0  0  0  0  0  0  0  0  0  0  0  0
    3.1257    5.4179    1.4266 C   0  0  0  0  0  0  0  0  0  0  0  0
    2.2775    5.1245    0.3462 C   0  0  0  0  0  0  0  0  0  0  0  0
    1.7804    3.8255    0.1756 C   0  0  0  0  0  0  0  0  0  0  0  0
    1.6302    0.2404    2.3947 C   0  0  0  0  0  0  0  0  0  0  0  0
    2.5293   -0.8046    2.6830 C   0  0  0  0  0  0  0  0  0  0  0  0
    2.4573   -1.4639    3.9207 C   0  0  0  0  0  0  0  0  0  0  0  0
    1.4974   -1.0826    4.8702 C   0  0  0  0  0  0  0  0  0  0  0  0
    0.6032   -0.0353    4.5855 C   0  0  0  0  0  0  0  0  0  0  0  0
    0.6609    0.6244    3.3512 C   0  0  0  0  0  0  0  0  0  0  0  0
    4.2220   -1.3902   -2.0475 C   0  0  0  0  0  0  0  0  0  0  0  0
    5.1884   -2.4072   -1.9020 C   0  0  0  0  0  0  0  0  0  0  0  0
    6.2761   -2.4833   -2.7868 C   0  0  0  0  0  0  0  0  0  0  0  0
    6.4053   -1.5454   -3.8217 C   0  0  0  0  0  0  0  0  0  0  0  0
    5.4464   -0.5288   -3.9738 C   0  0  0  0  0  0  0  0  0  0  0  0
    4.3606   -0.4508   -3.0915 C   0  0  0  0  0  0  0  0  0  0  0  0
   -0.3858   -2.5826   -0.0244 C   0  0  0  0  0  0  0  0  0  0  0  0
   -0.5907   -2.4161    1.3595 C   0  0  0  0  0  0  0  0  0  0  0  0
   -0.8245   -3.5375    2.1678 C   0  0  0  0  0  0  0  0  0  0  0  0
   -0.8542   -4.8202    1.5998 C   0  0  0  0  0  0  0  0  0  0  0  0
   -0.6472   -4.9877    0.2194 C   0  0  0  0  0  0  0  0  0  0  0  0
   -0.4143   -3.8723   -0.5961 C   0  0  0  0  0  0  0  0  0  0  0  0
   -3.4962   -0.9551    0.1831 C   0  0  0  0  0  0  0  0  0  0  0  0
   -3.7582   -0.3953    1.4535 C   0  0  0  0  0  0  0  0  0  0  0  0
   -4.4036   -1.1659    2.4296 C   0  0  0  0  0  0  0  0  0  0  0  0
   -4.7758   -2.4918    2.1505 C   0  0  0  0  0  0  0  0  0  0  0  0
   -4.5117   -3.0480    0.8889 C   0  0  0  0  0  0  0  0  0  0  0  0
   -3.8747   -2.2823   -0.0986 C   0  0  0  0  0  0  0  0  0  0  0  0
   -3.7592    1.1425   -1.9136 C   0  0  0  0  0  0  0  0  0  0  0  0
   -4.8967    0.5739   -2.5260 C   0  0  0  0  0  0  0  0  0  0  0  0
   -5.7705    1.3966   -3.2482 C   0  0  0  0  0  0  0  0  0  0  0  0
   -5.5164    2.7759   -3.3509 C   0  0  0  0  0  0  0  0  0  0  0  0
   -4.3919    3.3387   -2.7277 C   0  0  0  0  0  0  0  0  0  0  0  0
   -3.5056    2.5261   -2.0040 C   0  0  0  0  0  0  0  0  0  0  0  0
    2.9366    1.1098   -1.1736 H   0  0  0  0  0  0  0  0  0  0  0  0
    3.8718    0.5567    0.2373 H   0  0  0  0  0  0  0  0  0  0  0  0
    1.4508   -0.4905   -2.7665 H   0  0  0  0  0  0  0  0  0  0  0  0
    1.3686   -2.2854   -2.5819 H   0  0  0  0  0  0  0  0  0  0  0  0
   -1.4480   -0.4467   -3.0772 H   0  0  0  0  0  0  0  0  0  0  0  0
   -2.1531   -2.0041   -2.4716 H   0  0  0  0  0  0  0  0  0  0  0  0
    3.2671    2.3190    2.8918 H   0  0  0  0  0  0  0  0  0  0  0  0
    4.1386    4.6430    3.1896 H   0  0  0  0  0  0  0  0  0  0  0  0
    3.5061    6.4412    1.5636 H   0  0  0  0  0  0  0  0  0  0  0  0
    1.9880    5.9169   -0.3598 H   0  0  0  0  0  0  0  0  0  0  0  0
    1.0872    3.5996   -0.6487 H   0  0  0  0  0  0  0  0  0  0  0  0
    3.2737   -1.1290    1.9421 H   0  0  0  0  0  0  0  0  0  0  0  0
    3.1584   -2.2826    4.1407 H   0  0  0  0  0  0  0  0  0  0  0  0
    1.4461   -1.6021    5.8390 H   0  0  0  0  0  0  0  0  0  0  0  0
   -0.1476    0.2692    5.3300 H   0  0  0  0  0  0  0  0  0  0  0  0
   -0.0506    1.4331    3.1143 H   0  0  0  0  0  0  0  0  0  0  0  0
    5.0850   -3.1429   -1.0888 H   0  0  0  0  0  0  0  0  0  0  0  0
    7.0258   -3.2793   -2.6653 H   0  0  0  0  0  0  0  0  0  0  0  0
    7.2578   -1.6039   -4.5150 H   0  0  0  0  0  0  0  0  0  0  0  0
    5.5477    0.2081   -4.7848 H   0  0  0  0  0  0  0  0  0  0  0  0
    3.6206    0.3552   -3.2249 H   0  0  0  0  0  0  0  0  0  0  0  0
   -0.5771   -1.4087    1.8014 H   0  0  0  0  0  0  0  0  0  0  0  0
   -0.9852   -3.4020    3.2473 H   0  0  0  0  0  0  0  0  0  0  0  0
   -1.0393   -5.6993    2.2351 H   0  0  0  0  0  0  0  0  0  0  0  0
   -0.6686   -5.9943   -0.2244 H   0  0  0  0  0  0  0  0  0  0  0  0
   -0.2601   -4.0136   -1.6780 H   0  0  0  0  0  0  0  0  0  0  0  0
   -3.4346    0.6353    1.6749 H   0  0  0  0  0  0  0  0  0  0  0  0
   -4.6088   -0.7305    3.4189 H   0  0  0  0  0  0  0  0  0  0  0  0
   -5.2732   -3.0972    2.9230 H   0  0  0  0  0  0  0  0  0  0  0  0
   -4.7994   -4.0872    0.6710 H   0  0  0  0  0  0  0  0  0  0  0  0
   -3.6625   -2.7348   -1.0784 H   0  0  0  0  0  0  0  0  0  0  0  0
   -5.1052   -0.5031   -2.4296 H   0  0  0  0  0  0  0  0  0  0  0  0
   -6.6595    0.9613   -3.7284 H   0  0  0  0  0  0  0  0  0  0  0  0
   -6.2095    3.4179   -3.9152 H   0  0  0  0  0  0  0  0  0  0  0  0
   -4.2056    4.4207   -2.7961 H   0  0  0  0  0  0  0  0  0  0  0  0
   -2.6386    2.9584   -1.4801 H   0  0  0  0  0  0  0  0  0  0  0  0
  1  8  1  0  0  0  0
  1 14  1  0  0  0  0
  2  6  1  6  0  0  0
  2  5  1  0  0  0  0
  3  7  1  6  0  0  0
  3 26  1  0  0  0  0
  4 32  1  0  0  0  0
  5 45  1  0  0  0  0
  5  1  1  0  0  0  0
  6  3  1  0  0  0  0
  7  4  1  0  0  0  0
  8  9  1  0  0  0  0
  9 10  2  0  0  0  0
  9 50  1  0  0  0  0
 10 51  1  0  0  0  0
 11 52  1  0  0  0  0
 11 10  1  0  0  0  0
 12 11  2  0  0  0  0
 13 12  1  0  0  0  0
 13  8  2  0  0  0  0
 14 15  2  0  0  0  0
 14 19  1  0  0  0  0
 15 16  1  0  0  0  0
 16 56  1  0  0  0  0
 16 17  2  0  0  0  0
 17 57  1  0  0  0  0
 18 17  1  0  0  0  0
 18 58  1  0  0  0  0
 19 18  2  0  0  0  0
 20 21  1  0  0  0  0
 20  2  1  0  0  0  0
 21 60  1  0  0  0  0
 22 61  1  0  0  0  0
 22 21  2  0  0  0  0
 23 22  1  0  0  0  0
 24 23  2  0  0  0  0
 24 25  1  0  0  0  0
 25 20  2  0  0  0  0
 26 27  1  0  0  0  0
 27 65  1  0  0  0  0
 27 28  2  0  0  0  0
 28 66  1  0  0  0  0
 29 28  1  0  0  0  0
 29 67  1  0  0  0  0
 30 29  2  0  0  0  0
 31 26  2  0  0  0  0
 31 30  1  0  0  0  0
 32 33  1  0  0  0  0
 33 70  1  0  0  0  0
 33 34  2  0  0  0  0
 34 71  1  0  0  0  0
 35 34  1  0  0  0  0
 35 72  1  0  0  0  0
 36 35  2  0  0  0  0
 37 32  2  0  0  0  0
 37 36  1  0  0  0  0
 38  4  1  0  0  0  0
 39 75  1  0  0  0  0
 39 38  2  0  0  0  0
 40 39  1  0  0  0  0
 41 40  2  0  0  0  0
 41 42  1  0  0  0  0
 42 43  2  0  0  0  0
 43 38  1  0  0  0  0
 43 79  1  0  0  0  0
 44  5  1  0  0  0  0
 46  6  1  0  0  0  0
 47  6  1  0  0  0  0
 48  7  1  0  0  0  0
 49  7  1  0  0  0  0
 53 12  1  0  0  0  0
 54 13  1  0  0  0  0
 55 15  1  0  0  0  0
 59 19  1  0  0  0  0
 62 23  1  0  0  0  0
 63 24  1  0  0  0  0
 64 25  1  0  0  0  0
 68 30  1  0  0  0  0
 69 31  1  0  0  0  0
 73 36  1  0  0  0  0
 74 37  1  0  0  0  0
 76 40  1  0  0  0  0
 77 41  1  0  0  0  0
 78 42  1  0  0  0  0
M  END
