1,2,3
 OpenBabel05122313063D

 77 76  0  0  0  0  0  0  0  0999 V2000
   -0.2202   -0.5439    2.0089 P   0  0  0  0  0  0  0  0  0  0  0  0
   -0.2271   -1.4709   -1.4725 P   0  0  0  0  0  0  0  0  0  0  0  0
   -0.2309    2.0135   -0.5322 P   0  0  0  0  0  0  0  0  0  0  0  0
    2.0353   -0.0725    1.8337 Si  0  0  0  0  0  0  0  0  0  0  0  0
    2.0317   -1.5506   -0.9912 Si  0  0  0  0  0  0  0  0  0  0  0  0
    2.0251    1.6374   -0.8590 Si  0  0  0  0  0  0  0  0  0  0  0  0
    2.6021    0.0063   -0.0074 C   0  0  0  0  0  0  0  0  0  0  0  0
    4.1627    0.0089   -0.0114 C   0  0  0  0  0  0  0  0  0  0  0  0
    4.5848    0.7527    0.6973 H   0  0  0  0  0  0  0  0  0  0  0  0
    4.5810    0.2525   -1.0110 H   0  0  0  0  0  0  0  0  0  0  0  0
    4.5862   -0.9768    0.2762 H   0  0  0  0  0  0  0  0  0  0  0  0
   -0.6822    0.4152    3.5582 C   0  0  0  0  0  0  0  0  0  0  0  0
   -0.4908    1.4807    3.3155 H   0  0  0  0  0  0  0  0  0  0  0  0
   -1.7862    0.3325    3.6255 H   0  0  0  0  0  0  0  0  0  0  0  0
   -0.0286    0.0148    4.8794 C   0  0  0  0  0  0  0  0  0  0  0  0
   -0.3597    0.6884    5.6967 H   0  0  0  0  0  0  0  0  0  0  0  0
    1.0777    0.0647    4.8408 H   0  0  0  0  0  0  0  0  0  0  0  0
   -0.2999   -1.0168    5.1787 H   0  0  0  0  0  0  0  0  0  0  0  0
   -0.2533   -2.3123    2.6487 C   0  0  0  0  0  0  0  0  0  0  0  0
    0.0142   -2.9486    1.7811 H   0  0  0  0  0  0  0  0  0  0  0  0
    0.5452   -2.4473    3.4075 H   0  0  0  0  0  0  0  0  0  0  0  0
   -1.6148   -2.7376    3.2003 C   0  0  0  0  0  0  0  0  0  0  0  0
   -1.5748   -3.7899    3.5496 H   0  0  0  0  0  0  0  0  0  0  0  0
   -2.4062   -2.6670    2.4321 H   0  0  0  0  0  0  0  0  0  0  0  0
   -1.9275   -2.1164    4.0631 H   0  0  0  0  0  0  0  0  0  0  0  0
    2.3742    1.5941    2.6877 C   0  0  0  0  0  0  0  0  0  0  0  0
    3.4334    1.8834    2.5299 H   0  0  0  0  0  0  0  0  0  0  0  0
    2.2168    1.4954    3.7792 H   0  0  0  0  0  0  0  0  0  0  0  0
    1.7376    2.4223    2.3276 H   0  0  0  0  0  0  0  0  0  0  0  0
    3.0891   -1.3015    2.8346 C   0  0  0  0  0  0  0  0  0  0  0  0
    4.1645   -1.0424    2.7468 H   0  0  0  0  0  0  0  0  0  0  0  0
    2.9648   -2.3582    2.5385 H   0  0  0  0  0  0  0  0  0  0  0  0
    2.8151   -1.2135    3.9056 H   0  0  0  0  0  0  0  0  0  0  0  0
   -0.2722   -1.1479   -3.3244 C   0  0  0  0  0  0  0  0  0  0  0  0
   -0.0112   -0.0772   -3.4457 H   0  0  0  0  0  0  0  0  0  0  0  0
    0.5268   -1.7347   -3.8230 H   0  0  0  0  0  0  0  0  0  0  0  0
   -1.6357   -1.4224   -3.9602 C   0  0  0  0  0  0  0  0  0  0  0  0
   -1.6036   -1.2001   -5.0468 H   0  0  0  0  0  0  0  0  0  0  0  0
   -2.4285   -0.7970   -3.5112 H   0  0  0  0  0  0  0  0  0  0  0  0
   -1.9409   -2.4821   -3.8502 H   0  0  0  0  0  0  0  0  0  0  0  0
   -0.6863   -3.2925   -1.4055 C   0  0  0  0  0  0  0  0  0  0  0  0
   -0.4883   -3.6096   -0.3609 H   0  0  0  0  0  0  0  0  0  0  0  0
   -1.7908   -3.3114   -1.5044 H   0  0  0  0  0  0  0  0  0  0  0  0
   -0.0373   -4.2406   -2.4121 C   0  0  0  0  0  0  0  0  0  0  0  0
   -0.3676   -5.2844   -2.2317 H   0  0  0  0  0  0  0  0  0  0  0  0
    1.0693   -4.2320   -2.3546 H   0  0  0  0  0  0  0  0  0  0  0  0
   -0.3133   -3.9881   -3.4549 H   0  0  0  0  0  0  0  0  0  0  0  0
    3.0744   -1.8031   -2.5633 C   0  0  0  0  0  0  0  0  0  0  0  0
    4.1522   -1.8513   -2.3039 H   0  0  0  0  0  0  0  0  0  0  0  0
    2.9405   -1.0215   -3.3321 H   0  0  0  0  0  0  0  0  0  0  0  0
    2.8006   -2.7772   -3.0171 H   0  0  0  0  0  0  0  0  0  0  0  0
    2.3807   -3.1219    0.0246 C   0  0  0  0  0  0  0  0  0  0  0  0
    3.4416   -3.1268    0.3488 H   0  0  0  0  0  0  0  0  0  0  0  0
    2.2232   -4.0185   -0.6055 H   0  0  0  0  0  0  0  0  0  0  0  0
    1.7488   -3.2262    0.9251 H   0  0  0  0  0  0  0  0  0  0  0  0
   -0.2696    3.4530    0.6778 C   0  0  0  0  0  0  0  0  0  0  0  0
   -0.0005    3.0219    1.6632 H   0  0  0  0  0  0  0  0  0  0  0  0
    0.5260    4.1806    0.4148 H   0  0  0  0  0  0  0  0  0  0  0  0
   -1.6336    4.1383    0.7698 C   0  0  0  0  0  0  0  0  0  0  0  0
   -1.5971    4.9669    1.5068 H   0  0  0  0  0  0  0  0  0  0  0  0
   -2.4228    3.4348    1.0922 H   0  0  0  0  0  0  0  0  0  0  0  0
   -1.9473    4.5743   -0.1996 H   0  0  0  0  0  0  0  0  0  0  0  0
   -0.7018    2.8704   -2.1374 C   0  0  0  0  0  0  0  0  0  0  0  0
   -0.5114    2.1259   -2.9376 H   0  0  0  0  0  0  0  0  0  0  0  0
   -1.8059    2.9667   -2.0952 H   0  0  0  0  0  0  0  0  0  0  0  0
   -0.0538    4.2162   -2.4572 C   0  0  0  0  0  0  0  0  0  0  0  0
   -0.3931    4.5853   -3.4471 H   0  0  0  0  0  0  0  0  0  0  0  0
    1.0525    4.1608   -2.4892 H   0  0  0  0  0  0  0  0  0  0  0  0
   -0.3216    4.9911   -1.7121 H   0  0  0  0  0  0  0  0  0  0  0  0
    3.0732    3.1238   -0.2983 C   0  0  0  0  0  0  0  0  0  0  0  0
    4.1492    2.9232   -0.4806 H   0  0  0  0  0  0  0  0  0  0  0  0
    2.9497    3.3963    0.7649 H   0  0  0  0  0  0  0  0  0  0  0  0
    2.7938    4.0055   -0.9104 H   0  0  0  0  0  0  0  0  0  0  0  0
    2.3591    1.5433   -2.7302 C   0  0  0  0  0  0  0  0  0  0  0  0
    3.4180    1.2625   -2.9048 H   0  0  0  0  0  0  0  0  0  0  0  0
    2.2001    2.5376   -3.1905 H   0  0  0  0  0  0  0  0  0  0  0  0
    1.7214    0.8170   -3.2658 H   0  0  0  0  0  0  0  0  0  0  0  0
  1 19  1  0  0  0  0
  1 12  1  0  0  0  0
  2 41  1  0  0  0  0
  2  5  1  0  0  0  0
  3 56  1  0  0  0  0
  4  1  1  0  0  0  0
  4 26  1  0  0  0  0
  4 30  1  0  0  0  0
  5  7  1  0  0  0  0
  5 52  1  0  0  0  0
  6  3  1  0  0  0  0
  6 70  1  0  0  0  0
  6  7  1  0  0  0  0
  7  4  1  0  0  0  0
  8  7  1  0  0  0  0
  8 11  1  0  0  0  0
  8  9  1  0  0  0  0
 10  8  1  0  0  0  0
 12 14  1  0  0  0  0
 12 15  1  0  0  0  0
 13 12  1  0  0  0  0
 15 18  1  0  0  0  0
 15 16  1  0  0  0  0
 17 15  1  0  0  0  0
 19 22  1  0  0  0  0
 19 21  1  0  0  0  0
 20 19  1  0  0  0  0
 22 23  1  0  0  0  0
 22 25  1  0  0  0  0
 24 22  1  0  0  0  0
 26 28  1  0  0  0  0
 27 26  1  0  0  0  0
 29 26  1  0  0  0  0
 30 33  1  0  0  0  0
 31 30  1  0  0  0  0
 32 30  1  0  0  0  0
 34  2  1  0  0  0  0
 35 34  1  0  0  0  0
 36 34  1  0  0  0  0
 37 40  1  0  0  0  0
 37 39  1  0  0  0  0
 37 34  1  0  0  0  0
 38 37  1  0  0  0  0
 41 42  1  0  0  0  0
 43 41  1  0  0  0  0
 44 46  1  0  0  0  0
 44 45  1  0  0  0  0
 44 41  1  0  0  0  0
 47 44  1  0  0  0  0
 48 49  1  0  0  0  0
 48  5  1  0  0  0  0
 50 48  1  0  0  0  0
 51 48  1  0  0  0  0
 52 53  1  0  0  0  0
 52 55  1  0  0  0  0
 54 52  1  0  0  0  0
 56 59  1  0  0  0  0
 56 57  1  0  0  0  0
 58 56  1  0  0  0  0
 59 61  1  0  0  0  0
 59 60  1  0  0  0  0
 62 59  1  0  0  0  0
 63 65  1  0  0  0  0
 63  3  1  0  0  0  0
 64 63  1  0  0  0  0
 66 63  1  0  0  0  0
 66 69  1  0  0  0  0
 67 66  1  0  0  0  0
 68 66  1  0  0  0  0
 70 72  1  0  0  0  0
 71 70  1  0  0  0  0
 73 70  1  0  0  0  0
 74  6  1  0  0  0  0
 75 74  1  0  0  0  0
 76 74  1  0  0  0  0
 77 74  1  0  0  0  0
M  END
