1,2
 OpenBabel05122313053D

 19 18  0  0  0  0  0  0  0  0999 V2000
   -2.0630    0.9612   -0.7386 Si  0  0  0  0  0  3  0  0  0  0  0  0
   -1.1171   -1.8887   -0.5162 C   0  0  0  0  0  3  0  0  0  0  0  0
   -0.7083   -2.4576   -1.3862 H   0  0  0  0  0  0  0  0  0  0  0  0
   -0.9711   -2.5868    0.3423 H   0  0  0  0  0  0  0  0  0  0  0  0
   -2.6049   -1.7545   -0.7565 C   0  0  0  0  0  0  0  0  0  0  0  0
   -3.1882   -0.5393   -0.9013 C   0  0  0  0  0  0  0  0  0  0  0  0
   -4.2755   -0.4845   -1.1028 H   0  0  0  0  0  0  0  0  0  0  0  0
   -3.3690   -3.0560   -0.8388 C   0  0  0  0  0  0  0  0  0  0  0  0
   -2.9500   -3.7152   -1.6310 H   0  0  0  0  0  0  0  0  0  0  0  0
   -4.4460   -2.9022   -1.0480 H   0  0  0  0  0  0  0  0  0  0  0  0
   -3.2784   -3.6284    0.1115 H   0  0  0  0  0  0  0  0  0  0  0  0
   -2.9693    2.1388    0.4888 C   0  0  0  0  0  0  0  0  0  0  0  0
   -3.1883    1.6445    1.4574 H   0  0  0  0  0  0  0  0  0  0  0  0
   -3.9471    2.4215    0.0424 H   0  0  0  0  0  0  0  0  0  0  0  0
   -2.4201    3.0794    0.6969 H   0  0  0  0  0  0  0  0  0  0  0  0
   -2.1309    1.9180   -2.4015 C   0  0  0  0  0  0  0  0  0  0  0  0
   -3.1687    2.2432   -2.6288 H   0  0  0  0  0  0  0  0  0  0  0  0
   -1.7864    1.2567   -3.2220 H   0  0  0  0  0  0  0  0  0  0  0  0
   -1.4901    2.8250   -2.4127 H   0  0  0  0  0  0  0  0  0  0  0  0
  1 12  1  0  0  0  0
  2  4  1  0  0  0  0
  3  2  1  0  0  0  0
  5  2  1  0  0  0  0
  6  5  2  0  0  0  0
  6  1  1  0  0  0  0
  7  6  1  0  0  0  0
  8  5  1  0  0  0  0
  8 11  1  0  0  0  0
  9  8  1  0  0  0  0
 10  8  1  0  0  0  0
 12 15  1  0  0  0  0
 12 13  1  0  0  0  0
 14 12  1  0  0  0  0
 16  1  1  0  0  0  0
 17 16  1  0  0  0  0
 18 16  1  0  0  0  0
 19 16  1  0  0  0  0
M  END
