1,13
 OpenBabel05122313063D

 22 21  0  0  0  0  0  0  0  0999 V2000
    1.4273    1.0305   -1.0577 S   0  0  0  0  0  0  0  0  0  0  0  0
    0.3114    2.4304   -0.6972 C   0  0  0  0  0  0  0  0  0  0  0  0
    0.8875    3.3653   -0.8607 H   0  0  0  0  0  0  0  0  0  0  0  0
   -0.4614    2.3761   -1.4894 H   0  0  0  0  0  0  0  0  0  0  0  0
    2.8788    1.4349   -0.0106 C   0  0  0  0  0  0  0  0  0  0  0  0
    3.2375    2.4357   -0.3298 H   0  0  0  0  0  0  0  0  0  0  0  0
    2.5488    1.4787    1.0467 H   0  0  0  0  0  0  0  0  0  0  0  0
    3.9436    0.3605   -0.1972 C   0  0  0  0  0  0  0  0  0  0  0  0
    4.8334    0.6057    0.4163 H   0  0  0  0  0  0  0  0  0  0  0  0
    4.2648    0.2819   -1.2549 H   0  0  0  0  0  0  0  0  0  0  0  0
    3.5664   -0.6290    0.1281 H   0  0  0  0  0  0  0  0  0  0  0  0
   -0.3112    2.4305    0.6969 C   0  0  0  0  0  0  0  0  0  0  0  0
   -1.4272    1.0307    1.0578 S   0  0  0  0  0  0  0  0  0  0  0  0
   -2.8788    1.4350    0.0107 C   0  0  0  0  0  0  0  0  0  0  0  0
   -3.2374    2.4359    0.3298 H   0  0  0  0  0  0  0  0  0  0  0  0
   -2.5488    1.4786   -1.0465 H   0  0  0  0  0  0  0  0  0  0  0  0
   -3.9435    0.3606    0.1974 C   0  0  0  0  0  0  0  0  0  0  0  0
   -4.8335    0.6059   -0.4158 H   0  0  0  0  0  0  0  0  0  0  0  0
   -4.2645    0.2819    1.2552 H   0  0  0  0  0  0  0  0  0  0  0  0
   -3.5665   -0.6288   -0.1280 H   0  0  0  0  0  0  0  0  0  0  0  0
   -0.8874    3.3654    0.8602 H   0  0  0  0  0  0  0  0  0  0  0  0
    0.4615    2.3764    1.4890 H   0  0  0  0  0  0  0  0  0  0  0  0
  1  2  1  0  0  0  0
  1  5  1  0  0  0  0
  2 12  1  0  0  0  0
  3  2  1  0  0  0  0
  4  2  1  0  0  0  0
  5  7  1  0  0  0  0
  6  5  1  0  0  0  0
  8  5  1  0  0  0  0
  8 11  1  0  0  0  0
  8  9  1  0  0  0  0
 10  8  1  0  0  0  0
 12 21  1  0  0  0  0
 12 13  1  0  0  0  0
 12 22  1  0  0  0  0
 14 17  1  0  0  0  0
 14 15  1  0  0  0  0
 14 13  1  0  0  0  0
 16 14  1  0  0  0  0
 17 19  1  0  0  0  0
 18 17  1  0  0  0  0
 20 17  1  0  0  0  0
M  END
