1,2
 OpenBabel05122313063D

 34 36  0  0  1  0  0  0  0  0999 V2000
    0.2681    0.3195   -1.9782 S   0  0  0  0  0  1  0  0  0  0  0  0
    1.9183    2.8817    0.5250 S   0  0  0  0  0  1  0  0  0  0  0  0
    2.3817   -1.1695   -0.9186 N   0  0  0  0  0  0  0  0  0  0  0  0
    0.6606   -2.3572   -1.6264 N   0  0  0  0  0  0  0  0  0  0  0  0
    3.2360    0.4440    0.8822 N   0  0  0  0  0  0  0  0  0  0  0  0
    2.7643    1.5102    2.7515 N   0  0  0  0  0  0  0  0  0  0  0  0
    4.8000   -0.3806   -0.9365 N   0  0  0  0  0  0  0  0  0  0  0  0
    5.4232   -1.4077   -0.2982 N   0  0  0  0  0  0  0  0  0  0  0  0
    1.1339   -1.0752   -1.4657 C   0  0  2  0  0  3  0  0  0  0  0  0
    2.6857   -2.5119   -0.7405 C   0  0  0  0  0  0  0  0  0  0  0  0
    1.6223   -3.2561   -1.1859 C   0  0  0  0  0  0  0  0  0  0  0  0
   -0.6171   -2.7018   -2.2212 C   0  0  0  0  0  0  0  0  0  0  0  0
    2.6563    1.5737    1.3825 C   0  0  1  0  0  3  0  0  0  0  0  0
    3.6981   -0.3251    1.9399 C   0  0  0  0  0  0  0  0  0  0  0  0
    3.4033    0.3328    3.1066 C   0  0  0  0  0  0  0  0  0  0  0  0
    2.1837    2.4603    3.6815 C   0  0  0  0  0  0  0  0  0  0  0  0
    5.6392    0.2173   -1.8318 C   0  0  0  0  0  0  0  0  0  0  0  0
    6.8635   -0.4476   -1.7799 C   0  0  0  0  0  0  0  0  0  0  0  0
    6.6657   -1.4541   -0.8030 C   0  0  0  0  0  0  0  0  0  0  0  0
    3.3535    0.0384   -0.6282 B   0  0  1  0  0  0  0  0  0  0  0  0
    3.6682   -2.7974   -0.3468 H   0  0  0  0  0  0  0  0  0  0  0  0
    1.4716   -4.3379   -1.2435 H   0  0  0  0  0  0  0  0  0  0  0  0
   -1.0547   -3.5633   -1.6843 H   0  0  0  0  0  0  0  0  0  0  0  0
   -0.4997   -2.9476   -3.2967 H   0  0  0  0  0  0  0  0  0  0  0  0
   -1.2880   -1.8261   -2.1289 H   0  0  0  0  0  0  0  0  0  0  0  0
    4.2637   -1.2420    1.7449 H   0  0  0  0  0  0  0  0  0  0  0  0
    3.6056    0.0777    4.1506 H   0  0  0  0  0  0  0  0  0  0  0  0
    1.8061    3.3164    3.0910 H   0  0  0  0  0  0  0  0  0  0  0  0
    2.9467    2.8062    4.4054 H   0  0  0  0  0  0  0  0  0  0  0  0
    1.3367    1.9910    4.2219 H   0  0  0  0  0  0  0  0  0  0  0  0
    5.2991    1.0701   -2.4295 H   0  0  0  0  0  0  0  0  0  0  0  0
    7.7650   -0.2329   -2.3628 H   0  0  0  0  0  0  0  0  0  0  0  0
    7.3738   -2.2127   -0.4437 H   0  0  0  0  0  0  0  0  0  0  0  0
    3.0328    0.9780   -1.3246 H   0  0  0  0  0  0  0  0  0  0  0  0
  3 10  1  0  0  0  0
  3 20  1  0  0  0  0
  4  9  1  0  0  0  0
  4 11  1  0  0  0  0
  5 13  1  0  0  0  0
  5 14  1  0  0  0  0
  6 15  1  0  0  0  0
  6 16  1  0  0  0  0
  7 20  1  0  0  0  0
  7  8  1  0  0  0  0
  9  1  1  6  0  0  0
  9  3  1  0  0  0  0
 10 21  1  0  0  0  0
 11 10  2  0  0  0  0
 12 25  1  0  0  0  0
 12 23  1  0  0  0  0
 12  4  1  0  0  0  0
 13  2  1  6  0  0  0
 13  6  1  0  0  0  0
 14 15  2  0  0  0  0
 15 27  1  0  0  0  0
 16 30  1  0  0  0  0
 16 29  1  0  0  0  0
 17 18  2  0  0  0  0
 17  7  1  0  0  0  0
 18 19  1  0  0  0  0
 19 33  1  0  0  0  0
 19  8  2  0  0  0  0
 20 34  1  6  0  0  0
 20  5  1  0  0  0  0
 22 11  1  0  0  0  0
 24 12  1  0  0  0  0
 26 14  1  0  0  0  0
 28 16  1  0  0  0  0
 31 17  1  0  0  0  0
 32 18  1  0  0  0  0
M  END
