3,25
 OpenBabel05122313063D

 48 50  0  0  1  0  0  0  0  0999 V2000
    1.3529    0.8861    0.1735 B   0  0  2  0  0  0  0  0  0  0  0  0
    0.1987    0.4619    0.0624 H   0  0  0  0  0  0  0  0  0  0  0  0
    0.2293    0.6249   -2.8578 S   0  0  0  0  0  1  0  0  0  0  0  0
    3.4779    0.0126   -0.6169 N   0  0  0  0  0  2  0  0  0  0  0  0
    2.2298    0.3197   -1.0002 N   0  0  0  0  0  0  0  0  0  0  0  0
    1.7587    0.1165   -2.2817 C   0  0  0  0  0  0  0  0  0  0  0  0
    2.6489   -0.5613   -3.1759 C   0  0  0  0  0  0  0  0  0  0  0  0
    2.2801   -0.7664   -4.1905 H   0  0  0  0  0  0  0  0  0  0  0  0
    3.8996   -0.9500   -2.7589 C   0  0  0  0  0  0  0  0  0  0  0  0
    4.5720   -1.4991   -3.4335 H   0  0  0  0  0  0  0  0  0  0  0  0
    4.3037   -0.6198   -1.4269 C   0  0  0  0  0  0  0  0  0  0  0  0
    5.6453   -1.0650   -0.8427 C   0  0  0  0  0  0  0  0  0  0  0  0
    5.5694   -2.6033   -0.6829 C   0  0  0  0  0  0  0  0  0  0  0  0
    4.7044   -2.8824   -0.0469 H   0  0  0  0  0  0  0  0  0  0  0  0
    6.4999   -2.9865   -0.2151 H   0  0  0  0  0  0  0  0  0  0  0  0
    5.4493   -3.1105   -1.6621 H   0  0  0  0  0  0  0  0  0  0  0  0
    6.8013   -0.6818   -1.7882 C   0  0  0  0  0  0  0  0  0  0  0  0
    6.6979   -1.1466   -2.7895 H   0  0  0  0  0  0  0  0  0  0  0  0
    7.7676   -1.0246   -1.3656 H   0  0  0  0  0  0  0  0  0  0  0  0
    6.8593    0.4173   -1.9260 H   0  0  0  0  0  0  0  0  0  0  0  0
    5.8765   -0.4287    0.5376 C   0  0  0  0  0  0  0  0  0  0  0  0
    5.8955    0.6776    0.4736 H   0  0  0  0  0  0  0  0  0  0  0  0
    6.8490   -0.7710    0.9459 H   0  0  0  0  0  0  0  0  0  0  0  0
    5.0733   -0.7041    1.2464 H   0  0  0  0  0  0  0  0  0  0  0  0
   -1.2522    3.0840   -0.0749 S   0  0  0  0  0  1  0  0  0  0  0  0
    1.4476    2.4303    0.1532 N   0  0  0  0  0  0  0  0  0  0  0  0
    0.4295    3.3471    0.0476 C   0  0  2  0  0  3  0  0  0  0  0  0
    1.0210    4.5921    0.0688 N   0  0  0  0  0  0  0  0  0  0  0  0
    2.4005    4.4535    0.1817 C   0  0  0  0  0  0  0  0  0  0  0  0
    3.0691    5.3187    0.2071 H   0  0  0  0  0  0  0  0  0  0  0  0
    2.6600    3.1101    0.2233 C   0  0  0  0  0  0  0  0  0  0  0  0
    3.6064    2.5642    0.2866 H   0  0  0  0  0  0  0  0  0  0  0  0
    0.2876    5.8382   -0.0175 C   0  0  0  0  0  0  0  0  0  0  0  0
   -0.6038    5.6747   -0.6542 H   0  0  0  0  0  0  0  0  0  0  0  0
    0.9354    6.6174   -0.4605 H   0  0  0  0  0  0  0  0  0  0  0  0
   -0.0600    6.1719    0.9824 H   0  0  0  0  0  0  0  0  0  0  0  0
    1.5576   -2.3012    0.7463 S   0  0  0  0  0  0  0  0  0  0  0  0
    1.8577    0.3345    1.5170 N   0  0  0  0  0  0  0  0  0  0  0  0
    1.9288   -1.0180    1.7834 C   0  0  0  0  0  0  0  0  0  0  0  0
    2.3498   -1.1177    3.1037 N   0  0  0  0  0  0  0  0  0  0  0  0
    2.5191    0.1521    3.6427 C   0  0  0  0  0  0  0  0  0  0  0  0
    2.8356    0.3076    4.6779 H   0  0  0  0  0  0  0  0  0  0  0  0
    2.2096    1.0479    2.6536 C   0  0  0  0  0  0  0  0  0  0  0  0
    2.2013    2.1404    2.6762 H   0  0  0  0  0  0  0  0  0  0  0  0
    2.5502   -2.3718    3.7935 C   0  0  0  0  0  0  0  0  0  0  0  0
    1.9004   -2.4386    4.6904 H   0  0  0  0  0  0  0  0  0  0  0  0
    3.6091   -2.4932    4.1018 H   0  0  0  0  0  0  0  0  0  0  0  0
    2.2771   -3.1733    3.0767 H   0  0  0  0  0  0  0  0  0  0  0  0
  1  2  1  6  0  0  0
  1 38  1  0  0  0  0
  3  6  1  0  0  0  0
  5  4  1  0  0  0  0
  5  1  1  0  0  0  0
  6  5  1  0  0  0  0
  7  9  1  0  0  0  0
  7  6  2  0  0  0  0
  8  7  1  0  0  0  0
  9 11  2  0  0  0  0
 10  9  1  0  0  0  0
 11 12  1  0  0  0  0
 11  4  1  0  0  0  0
 12 13  1  0  0  0  0
 12 21  1  0  0  0  0
 13 15  1  0  0  0  0
 13 14  1  0  0  0  0
 16 13  1  0  0  0  0
 17 19  1  0  0  0  0
 17 12  1  0  0  0  0
 18 17  1  0  0  0  0
 20 17  1  0  0  0  0
 21 23  1  0  0  0  0
 21 24  1  0  0  0  0
 22 21  1  0  0  0  0
 26  1  1  0  0  0  0
 26 31  1  0  0  0  0
 27 25  1  1  0  0  0
 27 28  1  0  0  0  0
 27 26  1  0  0  0  0
 28 29  1  0  0  0  0
 29 30  1  0  0  0  0
 29 31  2  0  0  0  0
 31 32  1  0  0  0  0
 33 28  1  0  0  0  0
 33 36  1  0  0  0  0
 34 33  1  0  0  0  0
 35 33  1  0  0  0  0
 37 39  2  0  0  0  0
 38 39  1  0  0  0  0
 38 43  1  0  0  0  0
 39 40  1  0  0  0  0
 40 41  1  0  0  0  0
 40 45  1  0  0  0  0
 41 42  1  0  0  0  0
 43 44  1  0  0  0  0
 43 41  2  0  0  0  0
 45 47  1  0  0  0  0
 45 46  1  0  0  0  0
 48 45  1  0  0  0  0
M  END
