1,2
 OpenBabel05122313063D

 22 22  0  0  0  0  0  0  0  0999 V2000
   -1.9131   -1.9442   -0.4574 S   0  0  0  0  0  1  0  0  0  0  0  0
   -2.1772    0.5585   -2.1195 S   0  0  0  0  0  1  0  0  0  0  0  0
   -4.2537   -0.9500   -1.3146 N   0  0  0  0  0  0  0  0  0  0  0  0
   -2.9002   -0.7921   -1.2973 C   0  0  0  0  0  3  0  0  0  0  0  0
   -4.8907   -2.0757   -0.6200 C   0  0  0  0  0  0  0  0  0  0  0  0
   -4.2291   -2.9566   -0.7322 H   0  0  0  0  0  0  0  0  0  0  0  0
   -5.8470   -2.2981   -1.1375 H   0  0  0  0  0  0  0  0  0  0  0  0
   -5.1157   -1.7852    0.8710 C   0  0  0  0  0  0  0  0  0  0  0  0
   -4.1293   -1.4930    1.2888 H   0  0  0  0  0  0  0  0  0  0  0  0
   -5.3844   -2.7388    1.3741 H   0  0  0  0  0  0  0  0  0  0  0  0
   -6.1826   -0.7286    1.1850 C   0  0  0  0  0  0  0  0  0  0  0  0
   -7.1907   -1.1677    1.0073 H   0  0  0  0  0  0  0  0  0  0  0  0
   -6.1446   -0.5007    2.2721 H   0  0  0  0  0  0  0  0  0  0  0  0
   -6.0987    0.5848    0.3885 C   0  0  0  0  0  0  0  0  0  0  0  0
   -5.1182    1.0863    0.5497 H   0  0  0  0  0  0  0  0  0  0  0  0
   -6.8570    1.2821    0.8013 H   0  0  0  0  0  0  0  0  0  0  0  0
   -6.3661    0.4014   -1.1160 C   0  0  0  0  0  0  0  0  0  0  0  0
   -7.1767   -0.3490   -1.2457 H   0  0  0  0  0  0  0  0  0  0  0  0
   -6.7656    1.3412   -1.5514 H   0  0  0  0  0  0  0  0  0  0  0  0
   -5.1386    0.0257   -1.9580 C   0  0  0  0  0  0  0  0  0  0  0  0
   -5.4565   -0.3595   -2.9537 H   0  0  0  0  0  0  0  0  0  0  0  0
   -4.5173    0.9223   -2.1506 H   0  0  0  0  0  0  0  0  0  0  0  0
  2  4  1  0  0  0  0
  3  4  1  0  0  0  0
  3  5  1  0  0  0  0
  4  1  1  0  0  0  0
  5  8  1  0  0  0  0
  6  5  1  0  0  0  0
  7  5  1  0  0  0  0
  8 11  1  0  0  0  0
  8  9  1  0  0  0  0
  8 10  1  0  0  0  0
 11 13  1  0  0  0  0
 12 11  1  0  0  0  0
 14 15  1  0  0  0  0
 14 16  1  0  0  0  0
 14 11  1  0  0  0  0
 17 14  1  0  0  0  0
 18 17  1  0  0  0  0
 19 17  1  0  0  0  0
 20  3  1  0  0  0  0
 20 17  1  0  0  0  0
 21 20  1  0  0  0  0
 22 20  1  0  0  0  0
M  END
