2,3
 OpenBabel05122313063D

 30 29  0  0  0  0  0  0  0  0999 V2000
    3.1110    0.0340    0.3504 P   0  0  0  0  0  4  0  0  0  0  0  0
    1.8632   -0.0592   -1.2524 S   0  0  0  0  0  1  0  0  0  0  0  0
    0.4542    1.8856    1.0944 S   0  0  0  0  0  1  0  0  0  0  0  0
    3.2157    1.4698    1.1092 N   0  0  0  0  0  0  0  0  0  0  0  0
    2.3966    3.4817    1.8257 N   0  0  0  0  0  0  0  0  0  0  0  0
    3.3467    3.7143    2.1146 H   0  0  0  0  0  0  0  0  0  0  0  0
    1.6174    4.0743    2.1055 H   0  0  0  0  0  0  0  0  0  0  0  0
    4.6165   -0.3434   -0.1389 O   0  0  0  0  0  0  0  0  0  0  0  0
    2.1589    2.2414    1.3223 C   0  0  0  0  0  0  0  0  0  0  0  0
    2.8282   -1.0921    1.4746 O   0  0  0  0  0  0  0  0  0  0  0  0
    5.2800    0.5225   -1.1122 C   0  0  0  0  0  0  0  0  0  0  0  0
    4.5331    1.2582   -1.4871 H   0  0  0  0  0  0  0  0  0  0  0  0
    6.3999    1.2596   -0.3927 C   0  0  0  0  0  0  0  0  0  0  0  0
    5.9795    1.8510    0.4432 H   0  0  0  0  0  0  0  0  0  0  0  0
    7.1357    0.5388    0.0179 H   0  0  0  0  0  0  0  0  0  0  0  0
    6.9272    1.9431   -1.0884 H   0  0  0  0  0  0  0  0  0  0  0  0
    5.7368   -0.3589   -2.2646 C   0  0  0  0  0  0  0  0  0  0  0  0
    4.8681   -0.8681   -2.7255 H   0  0  0  0  0  0  0  0  0  0  0  0
    6.2434    0.2480   -3.0415 H   0  0  0  0  0  0  0  0  0  0  0  0
    6.4475   -1.1300   -1.9037 H   0  0  0  0  0  0  0  0  0  0  0  0
    2.4995   -2.4763    1.1231 C   0  0  0  0  0  0  0  0  0  0  0  0
    2.1773   -2.4870    0.0578 H   0  0  0  0  0  0  0  0  0  0  0  0
    3.7523   -3.3231    1.2963 C   0  0  0  0  0  0  0  0  0  0  0  0
    4.5679   -2.9414    0.6521 H   0  0  0  0  0  0  0  0  0  0  0  0
    4.0970   -3.2995    2.3500 H   0  0  0  0  0  0  0  0  0  0  0  0
    3.5445   -4.3763    1.0196 H   0  0  0  0  0  0  0  0  0  0  0  0
    1.3286   -2.8817    2.0014 C   0  0  0  0  0  0  0  0  0  0  0  0
    0.4580   -2.2295    1.7909 H   0  0  0  0  0  0  0  0  0  0  0  0
    1.0337   -3.9277    1.7848 H   0  0  0  0  0  0  0  0  0  0  0  0
    1.5965   -2.7993    3.0742 H   0  0  0  0  0  0  0  0  0  0  0  0
  1  4  1  0  0  0  0
  1 10  1  0  0  0  0
  2  1  1  0  0  0  0
  3  9  1  0  0  0  0
  4  9  2  0  0  0  0
  5  7  1  0  0  0  0
  5  6  1  0  0  0  0
  8  1  1  0  0  0  0
  9  5  1  0  0  0  0
 11 13  1  0  0  0  0
 11  8  1  0  0  0  0
 12 11  1  0  0  0  0
 13 15  1  0  0  0  0
 13 14  1  0  0  0  0
 16 13  1  0  0  0  0
 17 20  1  0  0  0  0
 17 11  1  0  0  0  0
 18 17  1  0  0  0  0
 19 17  1  0  0  0  0
 21 23  1  0  0  0  0
 21 10  1  0  0  0  0
 21 27  1  0  0  0  0
 22 21  1  0  0  0  0
 23 25  1  0  0  0  0
 24 23  1  0  0  0  0
 26 23  1  0  0  0  0
 27 30  1  0  0  0  0
 28 27  1  0  0  0  0
 29 27  1  0  0  0  0
M  END
