1,4
 OpenBabel05122313063D

 20 20  0  0  1  0  0  0  0  0999 V2000
    0.1451    1.9700   -0.3836 S   0  0  0  0  0  1  0  0  0  0  0  0
   -1.1328    0.8719   -0.3760 C   0  0  2  0  0  3  0  0  0  0  0  0
   -1.8341   -1.4763   -0.2909 N   0  0  0  0  0  0  0  0  0  0  0  0
    0.3893   -1.0519   -1.6967 S   0  0  0  0  0  1  0  0  0  0  0  0
   -0.9222   -0.5923   -0.7387 C   0  0  1  0  0  3  0  0  0  0  0  0
   -2.3918    1.2647   -0.0870 N   0  0  0  0  0  0  0  0  0  0  0  0
   -3.4517    0.2772    0.1266 C   0  0  0  0  0  0  0  0  0  0  0  0
   -4.0156    0.0978   -0.8173 H   0  0  0  0  0  0  0  0  0  0  0  0
   -4.1603    0.6863    0.8725 H   0  0  0  0  0  0  0  0  0  0  0  0
   -2.8451   -1.0086    0.6521 C   0  0  0  0  0  0  0  0  0  0  0  0
   -2.3525   -0.8464    1.6407 H   0  0  0  0  0  0  0  0  0  0  0  0
   -3.6275   -1.7825    0.7582 H   0  0  0  0  0  0  0  0  0  0  0  0
   -2.6875    2.6748    0.1315 C   0  0  0  0  0  0  0  0  0  0  0  0
   -3.7798    2.8024    0.2404 H   0  0  0  0  0  0  0  0  0  0  0  0
   -2.3211    3.2799   -0.7215 H   0  0  0  0  0  0  0  0  0  0  0  0
   -2.1654    3.0404    1.0415 H   0  0  0  0  0  0  0  0  0  0  0  0
   -1.5505   -2.9050   -0.3647 C   0  0  0  0  0  0  0  0  0  0  0  0
   -0.6525   -3.1168    0.2574 H   0  0  0  0  0  0  0  0  0  0  0  0
   -1.3295   -3.1988   -1.4071 H   0  0  0  0  0  0  0  0  0  0  0  0
   -2.4231   -3.4658    0.0160 H   0  0  0  0  0  0  0  0  0  0  0  0
  2  1  1  6  0  0  0
  2  6  1  0  0  0  0
  3 10  1  0  0  0  0
  5  4  1  6  0  0  0
  5  2  1  0  0  0  0
  5  3  1  0  0  0  0
  6  7  1  0  0  0  0
  6 13  1  0  0  0  0
  7 10  1  0  0  0  0
  7  9  1  0  0  0  0
  8  7  1  0  0  0  0
 10 12  1  0  0  0  0
 10 11  1  0  0  0  0
 13 14  1  0  0  0  0
 13 16  1  0  0  0  0
 15 13  1  0  0  0  0
 17  3  1  0  0  0  0
 17 20  1  0  0  0  0
 17 18  1  0  0  0  0
 19 17  1  0  0  0  0
M  END
