1,5
 OpenBabel05122313063D

 32 32  0  0  1  0  0  0  0  0999 V2000
    1.0514    1.0119   -1.6587 S   0  0  0  0  0  1  0  0  0  0  0  0
   -1.0901    1.6664   -0.1782 N   0  0  0  0  0  0  0  0  0  0  0  0
   -0.3310    0.7048   -0.7304 C   0  0  1  0  0  3  0  0  0  0  0  0
   -2.0953   -0.9525   -0.2848 N   0  0  0  0  0  0  0  0  0  0  0  0
    0.3144   -2.0187   -0.6940 S   0  0  0  0  0  1  0  0  0  0  0  0
   -0.7858   -0.7447   -0.5354 C   0  0  1  0  0  3  0  0  0  0  0  0
   -2.1723    1.2623    0.7135 C   0  0  0  0  0  0  0  0  0  0  0  0
   -2.8154    2.1360    0.9239 H   0  0  0  0  0  0  0  0  0  0  0  0
   -1.7226    0.8993    1.6666 H   0  0  0  0  0  0  0  0  0  0  0  0
   -2.9759    0.1693    0.0459 C   0  0  0  0  0  0  0  0  0  0  0  0
   -3.7541   -0.1953    0.7432 H   0  0  0  0  0  0  0  0  0  0  0  0
   -3.4903    0.5453   -0.8665 H   0  0  0  0  0  0  0  0  0  0  0  0
   -1.7560    3.9505   -0.8682 C   0  0  0  0  0  0  0  0  0  0  0  0
   -1.9521    3.5980   -1.9002 H   0  0  0  0  0  0  0  0  0  0  0  0
   -1.4049    4.9996   -0.9252 H   0  0  0  0  0  0  0  0  0  0  0  0
   -2.7150    3.9581   -0.3082 H   0  0  0  0  0  0  0  0  0  0  0  0
   -0.3345    3.5490    1.2345 C   0  0  0  0  0  0  0  0  0  0  0  0
    0.1291    4.5538    1.1881 H   0  0  0  0  0  0  0  0  0  0  0  0
    0.3834    2.8409    1.6953 H   0  0  0  0  0  0  0  0  0  0  0  0
   -1.2273    3.6258    1.8893 H   0  0  0  0  0  0  0  0  0  0  0  0
   -2.6365   -2.3248   -0.1206 C   0  0  0  0  0  0  0  0  0  0  0  0
   -1.9287   -2.9695   -0.6788 H   0  0  0  0  0  0  0  0  0  0  0  0
   -4.0228   -2.4621   -0.7492 C   0  0  0  0  0  0  0  0  0  0  0  0
   -4.8041   -1.8950   -0.2032 H   0  0  0  0  0  0  0  0  0  0  0  0
   -4.3215   -3.5281   -0.7257 H   0  0  0  0  0  0  0  0  0  0  0  0
   -4.0226   -2.1337   -1.8074 H   0  0  0  0  0  0  0  0  0  0  0  0
   -2.5766   -2.7189    1.3586 C   0  0  0  0  0  0  0  0  0  0  0  0
   -3.2686   -2.1061    1.9733 H   0  0  0  0  0  0  0  0  0  0  0  0
   -1.5472   -2.5906    1.7481 H   0  0  0  0  0  0  0  0  0  0  0  0
   -2.8685   -3.7805    1.4807 H   0  0  0  0  0  0  0  0  0  0  0  0
   -0.6896    3.0947   -0.1839 C   0  0  0  0  0  0  0  0  0  0  0  0
    0.2310    3.1068   -0.8010 H   0  0  0  0  0  0  0  0  0  0  0  0
  2  7  1  0  0  0  0
  3  1  1  6  0  0  0
  3  6  1  0  0  0  0
  3  2  1  0  0  0  0
  4 21  1  0  0  0  0
  4 10  1  0  0  0  0
  6  5  1  6  0  0  0
  6  4  1  0  0  0  0
  7  8  1  0  0  0  0
  7  9  1  0  0  0  0
 10  7  1  0  0  0  0
 10 11  1  0  0  0  0
 12 10  1  0  0  0  0
 13 16  1  0  0  0  0
 13 31  1  0  0  0  0
 14 13  1  0  0  0  0
 15 13  1  0  0  0  0
 17 19  1  0  0  0  0
 17 20  1  0  0  0  0
 18 17  1  0  0  0  0
 21 27  1  0  0  0  0
 22 21  1  0  0  0  0
 23 25  1  0  0  0  0
 23 24  1  0  0  0  0
 23 21  1  0  0  0  0
 26 23  1  0  0  0  0
 27 30  1  0  0  0  0
 27 29  1  0  0  0  0
 27 28  1  0  0  0  0
 31  2  1  0  0  0  0
 31 17  1  0  0  0  0
 32 31  1  0  0  0  0
M  END
