1,2
 OpenBabel05122313063D

 16 17  0  0  0  0  0  0  0  0999 V2000
    1.4122    1.3655   -0.5665 S   0  0  0  0  0  1  0  0  0  0  0  0
    1.3366   -1.6688    0.3984 S   0  0  0  0  0  1  0  0  0  0  0  0
    4.0579    1.0808   -0.6842 N   0  0  0  0  0  0  0  0  0  0  0  0
    3.9754   -1.6670    0.0344 N   0  0  0  0  0  0  0  0  0  0  0  0
    2.9205    0.4682   -0.4176 C   0  0  0  0  0  0  0  0  0  0  0  0
    5.2058    0.3427   -0.6090 C   0  0  0  0  0  0  0  0  0  0  0  0
    6.4622    0.9504   -0.8875 C   0  0  0  0  0  0  0  0  0  0  0  0
    6.4634    2.0178   -1.1537 H   0  0  0  0  0  0  0  0  0  0  0  0
    7.6316    0.2032   -0.8226 C   0  0  0  0  0  0  0  0  0  0  0  0
    8.6003    0.6789   -1.0402 H   0  0  0  0  0  0  0  0  0  0  0  0
    7.5887   -1.1753   -0.4778 C   0  0  0  0  0  0  0  0  0  0  0  0
    8.5245   -1.7534   -0.4325 H   0  0  0  0  0  0  0  0  0  0  0  0
    6.3771   -1.7946   -0.1976 C   0  0  0  0  0  0  0  0  0  0  0  0
    6.3125   -2.8587    0.0743 H   0  0  0  0  0  0  0  0  0  0  0  0
    5.1628   -1.0544   -0.2529 C   0  0  0  0  0  0  0  0  0  0  0  0
    2.8796   -0.9347   -0.0283 C   0  0  0  0  0  0  0  0  0  0  0  0
  1  5  1  0  0  0  0
  3  6  2  0  0  0  0
  3  5  1  0  0  0  0
  5 16  2  0  0  0  0
  6 15  1  0  0  0  0
  7  9  2  0  0  0  0
  7  6  1  0  0  0  0
  8  7  1  0  0  0  0
  9 11  1  0  0  0  0
 10  9  1  0  0  0  0
 11 12  1  0  0  0  0
 11 13  2  0  0  0  0
 13 14  1  0  0  0  0
 15 13  1  0  0  0  0
 15  4  2  0  0  0  0
 16  4  1  0  0  0  0
 16  2  1  0  0  0  0
M  END
