1,2
 OpenBabel05122313063D

 15 15  0  0  0  0  0  0  0  0999 V2000
   -1.3786   -1.1693    1.9992 S   0  0  0  0  0  1  0  0  0  0  0  0
   -1.5063   -0.7742   -1.7418 S   0  0  0  0  0  1  0  0  0  0  0  0
   -2.8368   -1.7617    0.9939 C   0  0  0  0  0  0  0  0  0  0  0  0
   -2.4793   -2.5385    0.2867 H   0  0  0  0  0  0  0  0  0  0  0  0
   -3.5353   -2.2323    1.7138 H   0  0  0  0  0  0  0  0  0  0  0  0
   -3.5334   -0.6697    0.2329 C   0  0  0  0  0  0  0  0  0  0  0  0
   -4.7179   -0.1015    0.7456 C   0  0  0  0  0  0  0  0  0  0  0  0
   -5.1030   -0.4780    1.7072 H   0  0  0  0  0  0  0  0  0  0  0  0
   -5.4111    0.9097    0.0669 C   0  0  0  0  0  0  0  0  0  0  0  0
   -6.3355    1.3289    0.4927 H   0  0  0  0  0  0  0  0  0  0  0  0
   -4.9179    1.3723   -1.1642 C   0  0  0  0  0  0  0  0  0  0  0  0
   -5.4528    2.1591   -1.7190 H   0  0  0  0  0  0  0  0  0  0  0  0
   -3.7346    0.8347   -1.6870 C   0  0  0  0  0  0  0  0  0  0  0  0
   -3.3315    1.1977   -2.6451 H   0  0  0  0  0  0  0  0  0  0  0  0
   -3.0192   -0.1764   -1.0031 C   0  0  0  0  0  0  0  0  0  0  0  0
  2 15  1  0  0  0  0
  3  5  1  0  0  0  0
  3  1  1  0  0  0  0
  4  3  1  0  0  0  0
  6  7  1  0  0  0  0
  6  3  1  0  0  0  0
  7  8  1  0  0  0  0
  9 10  1  0  0  0  0
  9  7  2  0  0  0  0
 11  9  1  0  0  0  0
 12 11  1  0  0  0  0
 13 11  2  0  0  0  0
 13 15  1  0  0  0  0
 14 13  1  0  0  0  0
 15  6  2  0  0  0  0
M  END
