1,2
 OpenBabel05122313063D

 26 25  0  0  1  0  0  0  0  0999 V2000
    1.9403   -0.2519    1.0843 S   0  0  0  0  0  1  0  0  0  0  0  0
    1.4249    0.0092   -1.7258 S   0  0  0  0  0  1  0  0  0  0  0  0
    3.8815   -0.2651   -0.8277 O   0  0  0  0  0  0  0  0  0  0  0  0
    4.6277   -2.9261    0.1052 C   0  0  0  0  0  0  0  0  0  0  0  0
    3.8468   -2.8917   -0.6804 H   0  0  0  0  0  0  0  0  0  0  0  0
    5.1655   -3.8889    0.0004 H   0  0  0  0  0  0  0  0  0  0  0  0
    4.1101   -2.9273    1.0861 H   0  0  0  0  0  0  0  0  0  0  0  0
    4.9176   -0.3924    0.2024 C   0  0  1  0  0  0  0  0  0  0  0  0
    4.4024   -0.3971    1.1883 H   0  0  0  0  0  0  0  0  0  0  0  0
    5.5915   -1.7444   -0.0192 C   0  0  0  0  0  0  0  0  0  0  0  0
    6.0770   -1.7514   -1.0173 H   0  0  0  0  0  0  0  0  0  0  0  0
    6.4060   -1.8383    0.7283 H   0  0  0  0  0  0  0  0  0  0  0  0
    5.8081    0.8768    0.1299 C   0  0  0  0  0  0  0  0  0  0  0  0
    2.6056   -0.1841   -0.5021 C   0  0  0  0  0  3  0  0  0  0  0  0
    4.9078    2.1154    0.3127 C   0  0  0  0  0  0  0  0  0  0  0  0
    4.2022    2.2335   -0.5331 H   0  0  0  0  0  0  0  0  0  0  0  0
    4.3099    2.0487    1.2445 H   0  0  0  0  0  0  0  0  0  0  0  0
    5.5275    3.0331    0.3655 H   0  0  0  0  0  0  0  0  0  0  0  0
    6.5381    0.9706   -1.2218 C   0  0  0  0  0  0  0  0  0  0  0  0
    7.0925    1.9283   -1.2904 H   0  0  0  0  0  0  0  0  0  0  0  0
    7.2728    0.1515   -1.3555 H   0  0  0  0  0  0  0  0  0  0  0  0
    5.8180    0.9315   -2.0630 H   0  0  0  0  0  0  0  0  0  0  0  0
    6.8269    0.8257    1.2840 C   0  0  0  0  0  0  0  0  0  0  0  0
    6.3218    0.7260    2.2671 H   0  0  0  0  0  0  0  0  0  0  0  0
    7.5415   -0.0145    1.1762 H   0  0  0  0  0  0  0  0  0  0  0  0
    7.4189    1.7628    1.3057 H   0  0  0  0  0  0  0  0  0  0  0  0
  2 14  1  0  0  0  0
  3 14  1  0  0  0  0
  3  8  1  0  0  0  0
  4  7  1  0  0  0  0
  5  4  1  0  0  0  0
  6  4  1  0  0  0  0
  8  9  1  1  0  0  0
 10  4  1  0  0  0  0
 10  8  1  0  0  0  0
 10 12  1  0  0  0  0
 11 10  1  0  0  0  0
 13  8  1  0  0  0  0
 13 15  1  0  0  0  0
 13 23  1  0  0  0  0
 14  1  1  0  0  0  0
 15 18  1  0  0  0  0
 15 17  1  0  0  0  0
 16 15  1  0  0  0  0
 19 13  1  0  0  0  0
 20 19  1  0  0  0  0
 21 19  1  0  0  0  0
 22 19  1  0  0  0  0
 23 26  1  0  0  0  0
 23 24  1  0  0  0  0
 25 23  1  0  0  0  0
M  END
