1,4
 OpenBabel05122313063D

  4  3  0  0  0  0  0  0  0  0999 V2000
   -1.7951   -2.6274   -0.5215 S   0  0  0  0  0  0  0  0  0  0  0  0
   -1.0835   -4.3194    0.5188 S   0  0  0  0  0  0  0  0  0  0  0  0
    0.6685   -4.6125   -0.5562 S   0  0  0  0  0  0  0  0  0  0  0  0
    1.6964   -2.7999   -0.1118 S   0  0  0  0  0  0  0  0  0  0  0  0
  1  2  1  0  0  0  0
  3  4  1  0  0  0  0
  3  2  1  0  0  0  0
M  END
