1,2
 OpenBabel05122313063D

 49 51  0  0  0  0  0  0  0  0999 V2000
    0.8709   -0.6893    0.2007 S   0  0  0  0  0  0  0  0  0  0  0  0
   -2.3531    0.3422    0.7610 S   0  0  0  0  0  0  0  0  0  0  0  0
    0.8807    3.1724    0.3827 O   0  0  0  0  0  0  0  0  0  0  0  0
    3.0261    1.6019   -0.4669 O   0  0  0  0  0  0  0  0  0  0  0  0
   -0.7522   -2.0528    2.4276 O   0  0  0  0  0  0  0  0  0  0  0  0
    2.0363    3.7299   -0.2201 C   0  0  0  0  0  0  0  0  0  0  0  0
    2.2144    4.7711    0.1368 H   0  0  0  0  0  0  0  0  0  0  0  0
    1.9234    3.7581   -1.3275 H   0  0  0  0  0  0  0  0  0  0  0  0
    3.2277    2.8672    0.1356 C   0  0  0  0  0  0  0  0  0  0  0  0
    4.1524    3.3592   -0.2458 H   0  0  0  0  0  0  0  0  0  0  0  0
    3.3208    2.7610    1.2406 H   0  0  0  0  0  0  0  0  0  0  0  0
    3.9254    0.6004   -0.2684 C   0  0  0  0  0  0  0  0  0  0  0  0
    5.2010    0.7720    0.2978 C   0  0  0  0  0  0  0  0  0  0  0  0
    5.5383    1.7623    0.6328 H   0  0  0  0  0  0  0  0  0  0  0  0
    6.0558   -0.3365    0.4258 C   0  0  0  0  0  0  0  0  0  0  0  0
    7.0548   -0.1956    0.8657 H   0  0  0  0  0  0  0  0  0  0  0  0
    5.6488   -1.6071   -0.0029 C   0  0  0  0  0  0  0  0  0  0  0  0
    6.3243   -2.4695    0.0925 H   0  0  0  0  0  0  0  0  0  0  0  0
    4.3658   -1.7727   -0.5517 C   0  0  0  0  0  0  0  0  0  0  0  0
    4.0284   -2.7667   -0.8849 H   0  0  0  0  0  0  0  0  0  0  0  0
    3.4872   -0.6849   -0.6892 C   0  0  0  0  0  0  0  0  0  0  0  0
    2.0909   -0.8466   -1.1973 C   0  0  0  0  0  0  0  0  0  0  0  0
    1.8780   -1.8212   -1.6783 H   0  0  0  0  0  0  0  0  0  0  0  0
    1.7817   -0.0306   -1.8771 H   0  0  0  0  0  0  0  0  0  0  0  0
    1.3087   -2.1893    1.1793 C   0  0  0  0  0  0  0  0  0  0  0  0
    0.9595   -3.0651    0.5949 H   0  0  0  0  0  0  0  0  0  0  0  0
    2.4133   -2.2096    1.2807 H   0  0  0  0  0  0  0  0  0  0  0  0
    0.6553   -2.1009    2.5522 C   0  0  0  0  0  0  0  0  0  0  0  0
    0.9596   -2.9936    3.1487 H   0  0  0  0  0  0  0  0  0  0  0  0
    1.0344   -1.1997    3.0904 H   0  0  0  0  0  0  0  0  0  0  0  0
   -1.4437   -1.0475    3.1267 C   0  0  0  0  0  0  0  0  0  0  0  0
   -0.7717   -0.1867    3.3599 H   0  0  0  0  0  0  0  0  0  0  0  0
   -1.8199   -1.4295    4.1092 H   0  0  0  0  0  0  0  0  0  0  0  0
   -2.6574   -0.5768    2.3324 C   0  0  0  0  0  0  0  0  0  0  0  0
   -3.2919    0.0813    2.9619 H   0  0  0  0  0  0  0  0  0  0  0  0
   -3.2683   -1.4373    1.9922 H   0  0  0  0  0  0  0  0  0  0  0  0
   -1.2928    1.7332    1.3838 C   0  0  0  0  0  0  0  0  0  0  0  0
   -1.6456    1.9268    2.4192 H   0  0  0  0  0  0  0  0  0  0  0  0
   -0.2337    1.4165    1.4195 H   0  0  0  0  0  0  0  0  0  0  0  0
   -1.4743    2.9521    0.5153 C   0  0  0  0  0  0  0  0  0  0  0  0
   -2.7557    3.4296    0.1879 C   0  0  0  0  0  0  0  0  0  0  0  0
   -3.6324    2.8711    0.5507 H   0  0  0  0  0  0  0  0  0  0  0  0
   -2.9361    4.5720   -0.6043 C   0  0  0  0  0  0  0  0  0  0  0  0
   -3.9500    4.9184   -0.8509 H   0  0  0  0  0  0  0  0  0  0  0  0
   -1.8123    5.2577   -1.0829 C   0  0  0  0  0  0  0  0  0  0  0  0
   -1.9332    6.1549   -1.7086 H   0  0  0  0  0  0  0  0  0  0  0  0
   -0.5202    4.8087   -0.7717 C   0  0  0  0  0  0  0  0  0  0  0  0
    0.3477    5.3633   -1.1514 H   0  0  0  0  0  0  0  0  0  0  0  0
   -0.3446    3.6591    0.0247 C   0  0  0  0  0  0  0  0  0  0  0  0
  1 25  1  0  0  0  0
  2 37  1  0  0  0  0
  2 34  1  0  0  0  0
  4 12  1  0  0  0  0
  4  9  1  0  0  0  0
  5 28  1  0  0  0  0
  5 31  1  0  0  0  0
  6  9  1  0  0  0  0
  6  7  1  0  0  0  0
  6  3  1  0  0  0  0
  8  6  1  0  0  0  0
  9 11  1  0  0  0  0
 10  9  1  0  0  0  0
 12 13  1  0  0  0  0
 13 15  2  0  0  0  0
 13 14  1  0  0  0  0
 15 16  1  0  0  0  0
 17 18  1  0  0  0  0
 17 15  1  0  0  0  0
 19 17  2  0  0  0  0
 20 19  1  0  0  0  0
 21 19  1  0  0  0  0
 21 12  2  0  0  0  0
 22 21  1  0  0  0  0
 22  1  1  0  0  0  0
 23 22  1  0  0  0  0
 24 22  1  0  0  0  0
 25 27  1  0  0  0  0
 25 28  1  0  0  0  0
 26 25  1  0  0  0  0
 28 30  1  0  0  0  0
 28 29  1  0  0  0  0
 31 32  1  0  0  0  0
 31 33  1  0  0  0  0
 34 35  1  0  0  0  0
 34 31  1  0  0  0  0
 36 34  1  0  0  0  0
 37 39  1  0  0  0  0
 37 38  1  0  0  0  0
 40 37  1  0  0  0  0
 41 40  1  0  0  0  0
 41 42  1  0  0  0  0
 43 41  2  0  0  0  0
 44 43  1  0  0  0  0
 45 47  2  0  0  0  0
 45 43  1  0  0  0  0
 46 45  1  0  0  0  0
 47 49  1  0  0  0  0
 48 47  1  0  0  0  0
 49  3  1  0  0  0  0
 49 40  2  0  0  0  0
M  END
