1,2
 OpenBabel05122313063D

 35 34  0  0  0  0  0  0  0  0999 V2000
    1.5814    1.1592   -0.7243 S   0  0  0  0  0  0  0  0  0  0  0  0
   -1.5543    1.2152   -0.5898 S   0  0  0  0  0  0  0  0  0  0  0  0
    1.2810    2.5811    0.2946 C   0  0  0  0  0  0  0  0  0  0  0  0
    0.1056    3.0398    0.7741 C   0  0  0  0  0  0  0  0  0  0  0  0
   -1.2959    2.5125    0.6800 C   0  0  0  0  0  0  0  0  0  0  0  0
   -3.4108    0.8621   -0.4231 C   0  0  0  0  0  0  0  0  0  0  0  0
   -3.6480   -0.3024   -1.3912 C   0  0  0  0  0  0  0  0  0  0  0  0
   -3.7730    0.4835    1.0118 C   0  0  0  0  0  0  0  0  0  0  0  0
   -4.1609    2.1136   -0.8930 C   0  0  0  0  0  0  0  0  0  0  0  0
    3.4320    0.8461   -0.4119 C   0  0  0  0  0  0  0  0  0  0  0  0
    4.2130    2.0746   -0.8906 C   0  0  0  0  0  0  0  0  0  0  0  0
    3.6718    0.5456    1.0660 C   0  0  0  0  0  0  0  0  0  0  0  0
    3.7481   -0.3604   -1.3026 C   0  0  0  0  0  0  0  0  0  0  0  0
    2.1862    3.1757    0.4921 H   0  0  0  0  0  0  0  0  0  0  0  0
    0.1724    3.9748    1.3579 H   0  0  0  0  0  0  0  0  0  0  0  0
   -1.6055    2.1117    1.6697 H   0  0  0  0  0  0  0  0  0  0  0  0
   -1.9777    3.3546    0.4371 H   0  0  0  0  0  0  0  0  0  0  0  0
   -3.1148   -1.2152   -1.0663 H   0  0  0  0  0  0  0  0  0  0  0  0
   -4.7334   -0.5291   -1.4233 H   0  0  0  0  0  0  0  0  0  0  0  0
   -3.3188   -0.0491   -2.4190 H   0  0  0  0  0  0  0  0  0  0  0  0
   -3.6656    1.3375    1.7094 H   0  0  0  0  0  0  0  0  0  0  0  0
   -3.1519   -0.3560    1.3760 H   0  0  0  0  0  0  0  0  0  0  0  0
   -4.8354    0.1636    1.0466 H   0  0  0  0  0  0  0  0  0  0  0  0
   -3.9970    2.9806   -0.2223 H   0  0  0  0  0  0  0  0  0  0  0  0
   -5.2512    1.9050   -0.8927 H   0  0  0  0  0  0  0  0  0  0  0  0
   -3.8642    2.4006   -1.9208 H   0  0  0  0  0  0  0  0  0  0  0  0
    4.0333    2.9709   -0.2648 H   0  0  0  0  0  0  0  0  0  0  0  0
    5.2985    1.8525   -0.8281 H   0  0  0  0  0  0  0  0  0  0  0  0
    3.9719    2.3238   -1.9426 H   0  0  0  0  0  0  0  0  0  0  0  0
    3.3930    1.4016    1.7120 H   0  0  0  0  0  0  0  0  0  0  0  0
    3.0917   -0.3377    1.3921 H   0  0  0  0  0  0  0  0  0  0  0  0
    4.7492    0.3325    1.2277 H   0  0  0  0  0  0  0  0  0  0  0  0
    4.8248   -0.6071   -1.2023 H   0  0  0  0  0  0  0  0  0  0  0  0
    3.5425   -0.1410   -2.3693 H   0  0  0  0  0  0  0  0  0  0  0  0
    3.1656   -1.2519   -1.0057 H   0  0  0  0  0  0  0  0  0  0  0  0
  1 10  1  0  0  0  0
  1  3  1  0  0  0  0
  2  6  1  0  0  0  0
  2  5  1  0  0  0  0
  3 14  1  0  0  0  0
  3  4  2  0  0  0  0
  4 15  1  0  0  0  0
  5  4  1  0  0  0  0
  5 16  1  0  0  0  0
  6  8  1  0  0  0  0
  7 18  1  0  0  0  0
  7  6  1  0  0  0  0
  8 23  1  0  0  0  0
  8 22  1  0  0  0  0
  8 21  1  0  0  0  0
  9 25  1  0  0  0  0
  9  6  1  0  0  0  0
  9 24  1  0  0  0  0
 10 12  1  0  0  0  0
 11 28  1  0  0  0  0
 11 10  1  0  0  0  0
 11 27  1  0  0  0  0
 12 32  1  0  0  0  0
 12 31  1  0  0  0  0
 12 30  1  0  0  0  0
 13 33  1  0  0  0  0
 13 35  1  0  0  0  0
 13 10  1  0  0  0  0
 17  5  1  0  0  0  0
 19  7  1  0  0  0  0
 20  7  1  0  0  0  0
 26  9  1  0  0  0  0
 29 11  1  0  0  0  0
 34 13  1  0  0  0  0
M  END
