1,2
 OpenBabel05122313063D

 23 24  0  0  0  0  0  0  0  0999 V2000
   -1.1019    0.7670   -0.6615 S   0  0  0  0  0  1  0  0  0  0  0  0
   -1.8899   -1.9904   -0.3606 S   0  0  0  0  0  1  0  0  0  0  0  0
   -3.6794   -0.0361   -0.9670 N   0  0  0  0  0  0  0  0  0  0  0  0
   -5.9804   -0.4614   -0.1618 C   0  0  0  0  0  0  0  0  0  0  0  0
   -7.0417   -1.3413    0.1266 C   0  0  0  0  0  0  0  0  0  0  0  0
   -4.0783    1.3437   -1.2287 C   0  0  0  0  0  0  0  0  0  0  0  0
   -8.1798   -0.8952    0.8084 C   0  0  0  0  0  0  0  0  0  0  0  0
   -4.7717   -0.9980   -0.9062 C   0  0  0  0  0  0  0  0  0  0  0  0
   -6.0672    0.8922    0.2354 C   0  0  0  0  0  0  0  0  0  0  0  0
   -8.2683    0.4484    1.2091 C   0  0  0  0  0  0  0  0  0  0  0  0
   -4.9351    1.8504   -0.0694 C   0  0  0  0  0  0  0  0  0  0  0  0
   -2.4043   -0.3824   -0.6995 C   0  0  0  0  0  3  0  0  0  0  0  0
   -7.2188    1.3287    0.9206 C   0  0  0  0  0  0  0  0  0  0  0  0
   -6.9672   -2.3953   -0.1861 H   0  0  0  0  0  0  0  0  0  0  0  0
   -3.1653    1.9535   -1.3687 H   0  0  0  0  0  0  0  0  0  0  0  0
   -4.6542    1.3643   -2.1803 H   0  0  0  0  0  0  0  0  0  0  0  0
   -8.9982   -1.5964    1.0302 H   0  0  0  0  0  0  0  0  0  0  0  0
   -5.0624   -1.2955   -1.9414 H   0  0  0  0  0  0  0  0  0  0  0  0
   -4.3876   -1.9144   -0.4113 H   0  0  0  0  0  0  0  0  0  0  0  0
   -9.1590    0.8100    1.7446 H   0  0  0  0  0  0  0  0  0  0  0  0
   -4.2840    1.9696    0.8249 H   0  0  0  0  0  0  0  0  0  0  0  0
   -5.3359    2.8579   -0.3050 H   0  0  0  0  0  0  0  0  0  0  0  0
   -7.2872    2.3844    1.2285 H   0  0  0  0  0  0  0  0  0  0  0  0
  3  8  1  0  0  0  0
  3 12  1  0  0  0  0
  4  5  2  0  0  0  0
  4  9  1  0  0  0  0
  5  7  1  0  0  0  0
  6  3  1  0  0  0  0
  6 11  1  0  0  0  0
  7 17  1  0  0  0  0
  7 10  2  0  0  0  0
  8 19  1  0  0  0  0
  8  4  1  0  0  0  0
  9 13  2  0  0  0  0
 10 20  1  0  0  0  0
 11  9  1  0  0  0  0
 11 21  1  0  0  0  0
 12  1  1  0  0  0  0
 12  2  1  0  0  0  0
 13 10  1  0  0  0  0
 13 23  1  0  0  0  0
 14  5  1  0  0  0  0
 15  6  1  0  0  0  0
 16  6  1  0  0  0  0
 18  8  1  0  0  0  0
 22 11  1  0  0  0  0
M  END
