21,28
 OpenBabel05122313063D

 32 33  0  0  1  0  0  0  0  0999 V2000
   -4.6848   -1.5071    0.7006 N   0  0  0  0  0  0  0  0  0  0  0  0
   -3.8843   -0.9597    1.6363 C   0  0  0  0  0  0  0  0  0  0  0  0
   -3.6030   -1.6307    2.4681 H   0  0  0  0  0  0  0  0  0  0  0  0
   -3.3649    0.2762    1.6736 N   0  0  0  0  0  2  0  0  0  0  0  0
   -3.7539    1.0047    0.6109 C   0  0  0  0  0  0  0  0  0  0  0  0
   -4.5946    0.5849   -0.4390 C   0  0  0  0  0  0  0  0  0  0  0  0
   -5.0648   -0.7550   -0.3620 C   0  0  1  0  0  3  0  0  0  0  0  0
   -5.8524   -1.2928   -1.3136 N   0  0  0  0  0  0  0  0  0  0  0  0
   -6.1423   -0.7226   -2.1061 H   0  0  0  0  0  0  0  0  0  0  0  0
   -6.2089   -2.2405   -1.2037 H   0  0  0  0  0  0  0  0  0  0  0  0
   -4.7663    1.5831   -1.3757 N   0  0  0  0  0  0  0  0  0  0  0  0
   -4.0510    2.5896   -0.9116 C   0  0  0  0  0  0  0  0  0  0  0  0
   -3.9400    3.5724   -1.3901 H   0  0  0  0  0  0  0  0  0  0  0  0
   -3.4158    2.3109    0.2954 N   0  0  0  0  0  0  0  0  0  0  0  0
   -2.5292    3.1650    1.0629 C   0  0  0  0  0  0  0  0  0  0  0  0
   -2.8891    3.2042    2.1133 H   0  0  0  0  0  0  0  0  0  0  0  0
   -2.5902    4.1898    0.6462 H   0  0  0  0  0  0  0  0  0  0  0  0
   -1.0907    2.6416    1.0649 C   0  0  0  0  0  0  0  0  0  0  0  0
   -1.0809    1.6102    1.4657 H   0  0  0  0  0  0  0  0  0  0  0  0
   -0.4437    3.2565    1.7213 H   0  0  0  0  0  0  0  0  0  0  0  0
   -0.3493    2.5541   -0.6130 S   0  0  0  0  0  0  0  0  0  0  0  0
    0.6594    4.0778   -0.6598 C   0  0  0  0  0  0  0  0  0  0  0  0
    0.9189    4.2001   -1.7310 H   0  0  0  0  0  0  0  0  0  0  0  0
    0.0092    4.9375   -0.3944 H   0  0  0  0  0  0  0  0  0  0  0  0
    1.9116    4.0910    0.2199 C   0  0  0  0  0  0  0  0  0  0  0  0
    1.6499    4.0002    1.2943 H   0  0  0  0  0  0  0  0  0  0  0  0
    2.4345    5.0636    0.1015 H   0  0  0  0  0  0  0  0  0  0  0  0
    3.1298    2.7590   -0.0522 S   0  0  0  0  0  0  0  0  0  0  0  0
    3.7152    3.1255   -1.7371 C   0  0  0  0  0  0  0  0  0  0  0  0
    2.9074    3.0376   -2.4884 H   0  0  0  0  0  0  0  0  0  0  0  0
    4.4918    2.3690   -1.9581 H   0  0  0  0  0  0  0  0  0  0  0  0
    4.1742    4.1328   -1.7742 H   0  0  0  0  0  0  0  0  0  0  0  0
  1  2  2  0  0  0  0
  2  4  1  0  0  0  0
  2  3  1  0  0  0  0
  5  4  1  0  0  0  0
  6  7  1  0  0  0  0
  6  5  2  0  0  0  0
  7  8  1  6  0  0  0
  7  1  1  0  0  0  0
  8 10  1  0  0  0  0
  9  8  1  0  0  0  0
 11 12  2  0  0  0  0
 11  6  1  0  0  0  0
 12 14  1  0  0  0  0
 13 12  1  0  0  0  0
 14  5  1  0  0  0  0
 14 15  1  0  0  0  0
 15 18  1  0  0  0  0
 15 16  1  0  0  0  0
 17 15  1  0  0  0  0
 18 19  1  0  0  0  0
 18 20  1  0  0  0  0
 21 18  1  0  0  0  0
 22 21  1  0  0  0  0
 22 24  1  0  0  0  0
 22 25  1  0  0  0  0
 23 22  1  0  0  0  0
 25 26  1  0  0  0  0
 27 25  1  0  0  0  0
 28 25  1  0  0  0  0
 29 28  1  0  0  0  0
 30 29  1  0  0  0  0
 31 29  1  0  0  0  0
 32 29  1  0  0  0  0
M  END
