1,2
 OpenBabel05122313063D

 68 69  0  0  0  0  0  0  0  0999 V2000
   -1.2169    0.1051    1.9572 S   0  0  0  0  0  1  0  0  0  0  0  0
    0.4078   -2.1601   -0.4054 S   0  0  0  0  0  1  0  0  0  0  0  0
   -0.2177    1.0702    0.4935 P   0  0  2  0  0  4  0  0  0  0  0  0
    1.4166   -0.4955    0.1254 P   0  0  1  0  0  4  0  0  0  0  0  0
    0.4701    2.5063    1.1028 N   0  0  0  0  0  0  0  0  0  0  0  0
    2.2068   -0.6385    1.6176 N   0  0  0  0  0  0  0  0  0  0  0  0
   -1.2239    1.6066   -0.9872 C   0  0  0  0  0  0  0  0  0  0  0  0
   -1.5252    0.5356   -2.0427 C   0  0  0  0  0  0  0  0  0  0  0  0
   -2.3946    1.1109   -3.1685 C   0  0  0  0  0  0  0  0  0  0  0  0
   -3.6903    1.7097   -2.6105 C   0  0  0  0  0  0  0  0  0  0  0  0
   -3.3827    2.7934   -1.5717 C   0  0  0  0  0  0  0  0  0  0  0  0
   -2.5192    2.2360   -0.4310 C   0  0  0  0  0  0  0  0  0  0  0  0
    0.3901    2.8454    2.5294 C   0  0  0  0  0  0  0  0  0  0  0  0
   -0.8483    3.6478    2.9286 C   0  0  0  0  0  0  0  0  0  0  0  0
    1.2927    3.3442    0.2297 C   0  0  0  0  0  0  0  0  0  0  0  0
    0.7066    4.7195   -0.0921 C   0  0  0  0  0  0  0  0  0  0  0  0
    2.7344   -0.0224   -1.0938 C   0  0  0  0  0  0  0  0  0  0  0  0
    2.1577    0.4001   -2.4531 C   0  0  0  0  0  0  0  0  0  0  0  0
    3.2806    0.7589   -3.4374 C   0  0  0  0  0  0  0  0  0  0  0  0
    4.2837   -0.3905   -3.5923 C   0  0  0  0  0  0  0  0  0  0  0  0
    4.8482   -0.8239   -2.2341 C   0  0  0  0  0  0  0  0  0  0  0  0
    3.7287   -1.1902   -1.2500 C   0  0  0  0  0  0  0  0  0  0  0  0
    2.9940    0.4768    2.1532 C   0  0  0  0  0  0  0  0  0  0  0  0
    4.4575    0.1415    2.4396 C   0  0  0  0  0  0  0  0  0  0  0  0
    1.8535   -1.7368    2.5390 C   0  0  0  0  0  0  0  0  0  0  0  0
    2.7439   -2.9688    2.3963 C   0  0  0  0  0  0  0  0  0  0  0  0
   -0.5940    2.4035   -1.4466 H   0  0  0  0  0  0  0  0  0  0  0  0
   -0.5927    0.0965   -2.4453 H   0  0  0  0  0  0  0  0  0  0  0  0
   -2.0726   -0.3034   -1.5570 H   0  0  0  0  0  0  0  0  0  0  0  0
   -2.6175    0.3031   -3.8953 H   0  0  0  0  0  0  0  0  0  0  0  0
   -1.8293    1.8941   -3.7258 H   0  0  0  0  0  0  0  0  0  0  0  0
   -4.2778    0.9016   -2.1224 H   0  0  0  0  0  0  0  0  0  0  0  0
   -4.3162    2.1210   -3.4295 H   0  0  0  0  0  0  0  0  0  0  0  0
   -2.8570    3.6454   -2.0622 H   0  0  0  0  0  0  0  0  0  0  0  0
   -4.3200    3.2056   -1.1437 H   0  0  0  0  0  0  0  0  0  0  0  0
   -3.0856    1.4435    0.1070 H   0  0  0  0  0  0  0  0  0  0  0  0
   -2.2777    3.0321    0.3033 H   0  0  0  0  0  0  0  0  0  0  0  0
    1.3220    3.3956    2.7868 H   0  0  0  0  0  0  0  0  0  0  0  0
    0.4118    1.9020    3.1165 H   0  0  0  0  0  0  0  0  0  0  0  0
   -0.8226    3.8748    4.0139 H   0  0  0  0  0  0  0  0  0  0  0  0
   -1.7656    3.0601    2.7273 H   0  0  0  0  0  0  0  0  0  0  0  0
   -0.9189    4.6059    2.3778 H   0  0  0  0  0  0  0  0  0  0  0  0
    1.4727    2.7885   -0.7162 H   0  0  0  0  0  0  0  0  0  0  0  0
    2.2998    3.4663    0.6963 H   0  0  0  0  0  0  0  0  0  0  0  0
    1.3747    5.2695   -0.7852 H   0  0  0  0  0  0  0  0  0  0  0  0
    0.5918    5.3348    0.8216 H   0  0  0  0  0  0  0  0  0  0  0  0
   -0.2905    4.6274   -0.5677 H   0  0  0  0  0  0  0  0  0  0  0  0
    3.2630    0.8457   -0.6370 H   0  0  0  0  0  0  0  0  0  0  0  0
    1.5565   -0.4434   -2.8558 H   0  0  0  0  0  0  0  0  0  0  0  0
    1.4599    1.2564   -2.3391 H   0  0  0  0  0  0  0  0  0  0  0  0
    3.8119    1.6661   -3.0702 H   0  0  0  0  0  0  0  0  0  0  0  0
    2.8410    1.0298   -4.4194 H   0  0  0  0  0  0  0  0  0  0  0  0
    5.1049   -0.0962   -4.2781 H   0  0  0  0  0  0  0  0  0  0  0  0
    3.7730   -1.2573   -4.0674 H   0  0  0  0  0  0  0  0  0  0  0  0
    5.5345   -1.6877   -2.3532 H   0  0  0  0  0  0  0  0  0  0  0  0
    5.4572    0.0035   -1.8043 H   0  0  0  0  0  0  0  0  0  0  0  0
    3.1714   -2.0758   -1.6265 H   0  0  0  0  0  0  0  0  0  0  0  0
    4.1421   -1.4752   -0.2619 H   0  0  0  0  0  0  0  0  0  0  0  0
    2.5053    0.8461    3.0838 H   0  0  0  0  0  0  0  0  0  0  0  0
    2.9390    1.3220    1.4368 H   0  0  0  0  0  0  0  0  0  0  0  0
    4.9852    1.0384    2.8228 H   0  0  0  0  0  0  0  0  0  0  0  0
    4.9797   -0.2040    1.5251 H   0  0  0  0  0  0  0  0  0  0  0  0
    4.5502   -0.6525    3.2061 H   0  0  0  0  0  0  0  0  0  0  0  0
    0.7951   -2.0182    2.3672 H   0  0  0  0  0  0  0  0  0  0  0  0
    1.8970   -1.3207    3.5685 H   0  0  0  0  0  0  0  0  0  0  0  0
    2.4377   -3.7451    3.1266 H   0  0  0  0  0  0  0  0  0  0  0  0
    3.8142   -2.7377    2.5663 H   0  0  0  0  0  0  0  0  0  0  0  0
    2.6341   -3.3993    1.3813 H   0  0  0  0  0  0  0  0  0  0  0  0
  3  5  1  0  0  0  0
  3  1  1  1  0  0  0
  4  2  1  6  0  0  0
  4  3  1  0  0  0  0
  4  6  1  0  0  0  0
  5 13  1  0  0  0  0
  6 23  1  0  0  0  0
  6 25  1  0  0  0  0
  7 12  1  0  0  0  0
  7  3  1  0  0  0  0
  8 29  1  0  0  0  0
  8  7  1  0  0  0  0
  9 10  1  0  0  0  0
  9  8  1  0  0  0  0
 10 32  1  0  0  0  0
 10 11  1  0  0  0  0
 11 35  1  0  0  0  0
 11 12  1  0  0  0  0
 12 36  1  0  0  0  0
 12 37  1  0  0  0  0
 13 38  1  0  0  0  0
 13 14  1  0  0  0  0
 13 39  1  0  0  0  0
 14 40  1  0  0  0  0
 15 44  1  0  0  0  0
 15  5  1  0  0  0  0
 16 15  1  0  0  0  0
 16 46  1  0  0  0  0
 17 48  1  0  0  0  0
 17  4  1  0  0  0  0
 18 50  1  0  0  0  0
 18 17  1  0  0  0  0
 19 51  1  0  0  0  0
 19 18  1  0  0  0  0
 20 19  1  0  0  0  0
 20 21  1  0  0  0  0
 21 56  1  0  0  0  0
 21 22  1  0  0  0  0
 22 17  1  0  0  0  0
 22 58  1  0  0  0  0
 23 24  1  0  0  0  0
 23 59  1  0  0  0  0
 24 61  1  0  0  0  0
 24 63  1  0  0  0  0
 25 65  1  0  0  0  0
 26 25  1  0  0  0  0
 26 67  1  0  0  0  0
 26 66  1  0  0  0  0
 27  7  1  0  0  0  0
 28  8  1  0  0  0  0
 30  9  1  0  0  0  0
 31  9  1  0  0  0  0
 33 10  1  0  0  0  0
 34 11  1  0  0  0  0
 41 14  1  0  0  0  0
 42 14  1  0  0  0  0
 43 15  1  0  0  0  0
 45 16  1  0  0  0  0
 47 16  1  0  0  0  0
 49 18  1  0  0  0  0
 52 19  1  0  0  0  0
 53 20  1  0  0  0  0
 54 20  1  0  0  0  0
 55 21  1  0  0  0  0
 57 22  1  0  0  0  0
 60 23  1  0  0  0  0
 62 24  1  0  0  0  0
 64 25  1  0  0  0  0
 68 26  1  0  0  0  0
M  END
