29,30
 OpenBabel05122313063D

 30 29  0  0  0  0  0  0  0  0999 V2000
   -4.2163    0.0000   -0.0000 N   0  0  0  0  0  0  0  0  0  0  0  0
   -2.8886   -0.0000    0.0000 C   0  0  0  0  0  3  0  0  0  0  0  0
   -4.9802   -1.0710   -0.6591 C   0  0  0  0  0  0  0  0  0  0  0  0
   -4.2895   -1.6071   -1.3442 H   0  0  0  0  0  0  0  0  0  0  0  0
   -5.7501   -0.5869   -1.2940 H   0  0  0  0  0  0  0  0  0  0  0  0
   -5.6369   -2.0678    0.3153 C   0  0  0  0  0  0  0  0  0  0  0  0
   -6.3821   -1.5058    0.9227 H   0  0  0  0  0  0  0  0  0  0  0  0
   -4.6201   -2.7052    1.2671 C   0  0  0  0  0  0  0  0  0  0  0  0
   -3.8543   -3.2811    0.7072 H   0  0  0  0  0  0  0  0  0  0  0  0
   -5.1255   -3.4046    1.9616 H   0  0  0  0  0  0  0  0  0  0  0  0
   -4.0923   -1.9504    1.8847 H   0  0  0  0  0  0  0  0  0  0  0  0
   -6.3993   -3.1177   -0.5023 C   0  0  0  0  0  0  0  0  0  0  0  0
   -6.9353   -3.8184    0.1669 H   0  0  0  0  0  0  0  0  0  0  0  0
   -5.7044   -3.7175   -1.1266 H   0  0  0  0  0  0  0  0  0  0  0  0
   -7.1490   -2.6549   -1.1755 H   0  0  0  0  0  0  0  0  0  0  0  0
   -4.9802    1.0711    0.6590 C   0  0  0  0  0  0  0  0  0  0  0  0
   -4.2895    1.6071    1.3442 H   0  0  0  0  0  0  0  0  0  0  0  0
   -5.7502    0.5869    1.2939 H   0  0  0  0  0  0  0  0  0  0  0  0
   -5.6368    2.0679   -0.3154 C   0  0  0  0  0  0  0  0  0  0  0  0
   -6.3819    1.5059   -0.9229 H   0  0  0  0  0  0  0  0  0  0  0  0
   -4.6199    2.7053   -1.2671 C   0  0  0  0  0  0  0  0  0  0  0  0
   -3.8542    3.2811   -0.7072 H   0  0  0  0  0  0  0  0  0  0  0  0
   -5.1253    3.4046   -1.9617 H   0  0  0  0  0  0  0  0  0  0  0  0
   -4.0921    1.9504   -1.8847 H   0  0  0  0  0  0  0  0  0  0  0  0
   -6.3992    3.1178    0.5021 C   0  0  0  0  0  0  0  0  0  0  0  0
   -7.1490    2.6550    1.1752 H   0  0  0  0  0  0  0  0  0  0  0  0
   -6.9352    3.8186   -0.1671 H   0  0  0  0  0  0  0  0  0  0  0  0
   -5.7044    3.7176    1.1265 H   0  0  0  0  0  0  0  0  0  0  0  0
   -1.9158   -1.2115   -0.7909 S   0  0  0  0  0  1  0  0  0  0  0  0
   -1.9158    1.2115    0.7910 S   0  0  0  0  0  1  0  0  0  0  0  0
  1  2  1  0  0  0  0
  1 16  1  0  0  0  0
  2 30  1  0  0  0  0
  3  1  1  0  0  0  0
  3  6  1  0  0  0  0
  4  3  1  0  0  0  0
  5  3  1  0  0  0  0
  6  7  1  0  0  0  0
  6  8  1  0  0  0  0
  8 11  1  0  0  0  0
  8 10  1  0  0  0  0
  9  8  1  0  0  0  0
 12 13  1  0  0  0  0
 12  6  1  0  0  0  0
 14 12  1  0  0  0  0
 15 12  1  0  0  0  0
 16 18  1  0  0  0  0
 16 17  1  0  0  0  0
 19 25  1  0  0  0  0
 19 16  1  0  0  0  0
 20 19  1  0  0  0  0
 21 22  1  0  0  0  0
 21 19  1  0  0  0  0
 23 21  1  0  0  0  0
 24 21  1  0  0  0  0
 25 28  1  0  0  0  0
 25 26  1  0  0  0  0
 27 25  1  0  0  0  0
 29  2  1  0  0  0  0
M  END
