2,3
 OpenBabel05122313063D

 46 48  0  0  0  0  0  0  0  0999 V2000
    2.1706   -2.9370   -1.8490 S   0  0  0  0  0  0  0  0  0  0  0  0
   -0.4787   -1.6663    1.5550 S   0  0  0  0  0  0  0  0  0  0  0  0
   -2.2146    1.0340    0.8785 S   0  0  0  0  0  0  0  0  0  0  0  0
    3.0265    0.9982   -1.3078 O   0  0  0  0  0  0  0  0  0  0  0  0
    1.2476    2.2026   -0.5845 O   0  0  0  0  0  0  0  0  0  0  0  0
    2.5589    2.2923   -1.1327 C   0  0  0  0  0  0  0  0  0  0  0  0
    2.5167    2.7622   -2.1388 H   0  0  0  0  0  0  0  0  0  0  0  0
    3.2297    2.8860   -0.4690 H   0  0  0  0  0  0  0  0  0  0  0  0
    3.4778    0.2762   -0.2172 C   0  0  0  0  0  0  0  0  0  0  0  0
    3.6282    0.8218    1.0718 C   0  0  0  0  0  0  0  0  0  0  0  0
    3.3412    1.8611    1.2814 H   0  0  0  0  0  0  0  0  0  0  0  0
    4.1306    0.0246    2.1107 C   0  0  0  0  0  0  0  0  0  0  0  0
    4.2496    0.4600    3.1143 H   0  0  0  0  0  0  0  0  0  0  0  0
    4.4725   -1.3160    1.8739 C   0  0  0  0  0  0  0  0  0  0  0  0
    4.8682   -1.9414    2.6873 H   0  0  0  0  0  0  0  0  0  0  0  0
    4.2920   -1.8554    0.5933 C   0  0  0  0  0  0  0  0  0  0  0  0
    4.5176   -2.9160    0.4010 H   0  0  0  0  0  0  0  0  0  0  0  0
    3.7911   -1.0817   -0.4710 C   0  0  0  0  0  0  0  0  0  0  0  0
    3.5328   -1.6888   -1.8244 C   0  0  0  0  0  0  0  0  0  0  0  0
    4.4134   -2.2656   -2.1731 H   0  0  0  0  0  0  0  0  0  0  0  0
    3.3200   -0.9042   -2.5730 H   0  0  0  0  0  0  0  0  0  0  0  0
    0.8319   -2.0535   -0.9559 C   0  0  0  0  0  0  0  0  0  0  0  0
    0.9964   -0.9622   -1.0595 H   0  0  0  0  0  0  0  0  0  0  0  0
   -0.1248   -2.3109   -1.4548 H   0  0  0  0  0  0  0  0  0  0  0  0
    0.7700   -2.5165    0.4971 C   0  0  0  0  0  0  0  0  0  0  0  0
    1.7383   -2.4031    1.0242 H   0  0  0  0  0  0  0  0  0  0  0  0
    0.4514   -3.5756    0.5433 H   0  0  0  0  0  0  0  0  0  0  0  0
    0.2864    0.0113    1.6839 C   0  0  0  0  0  0  0  0  0  0  0  0
    1.0753   -0.0356    2.4625 H   0  0  0  0  0  0  0  0  0  0  0  0
    0.7724    0.2600    0.7228 H   0  0  0  0  0  0  0  0  0  0  0  0
   -0.7705    1.0418    2.0299 C   0  0  0  0  0  0  0  0  0  0  0  0
   -0.3488    2.0683    2.0357 H   0  0  0  0  0  0  0  0  0  0  0  0
   -1.2267    0.8548    3.0237 H   0  0  0  0  0  0  0  0  0  0  0  0
   -1.4954    1.7601   -0.6780 C   0  0  0  0  0  0  0  0  0  0  0  0
   -0.7500    1.0499   -1.0767 H   0  0  0  0  0  0  0  0  0  0  0  0
   -2.3874    1.7292   -1.3358 H   0  0  0  0  0  0  0  0  0  0  0  0
   -0.9317    3.1339   -0.4937 C   0  0  0  0  0  0  0  0  0  0  0  0
   -1.7655    4.2571   -0.3385 C   0  0  0  0  0  0  0  0  0  0  0  0
   -2.8560    4.1041   -0.3342 H   0  0  0  0  0  0  0  0  0  0  0  0
   -1.2344    5.5481   -0.2112 C   0  0  0  0  0  0  0  0  0  0  0  0
   -1.9050    6.4124   -0.1002 H   0  0  0  0  0  0  0  0  0  0  0  0
    0.1562    5.7296   -0.2435 C   0  0  0  0  0  0  0  0  0  0  0  0
    0.5858    6.7390   -0.1572 H   0  0  0  0  0  0  0  0  0  0  0  0
    1.0145    4.6284   -0.3843 C   0  0  0  0  0  0  0  0  0  0  0  0
    2.1021    4.7853   -0.3964 H   0  0  0  0  0  0  0  0  0  0  0  0
    0.4746    3.3324   -0.4902 C   0  0  0  0  0  0  0  0  0  0  0  0
  1 19  1  0  0  0  0
  1 22  1  0  0  0  0
  2 28  1  0  0  0  0
  3 31  1  0  0  0  0
  4  6  1  0  0  0  0
  4  9  1  0  0  0  0
  5 46  1  0  0  0  0
  6  5  1  0  0  0  0
  6  8  1  0  0  0  0
  7  6  1  0  0  0  0
  9 10  1  0  0  0  0
 10 11  1  0  0  0  0
 10 12  2  0  0  0  0
 12 13  1  0  0  0  0
 14 12  1  0  0  0  0
 14 15  1  0  0  0  0
 16 14  2  0  0  0  0
 17 16  1  0  0  0  0
 18  9  2  0  0  0  0
 18 16  1  0  0  0  0
 19 18  1  0  0  0  0
 20 19  1  0  0  0  0
 21 19  1  0  0  0  0
 22 25  1  0  0  0  0
 23 22  1  0  0  0  0
 24 22  1  0  0  0  0
 25 27  1  0  0  0  0
 25 26  1  0  0  0  0
 25  2  1  0  0  0  0
 28 31  1  0  0  0  0
 28 29  1  0  0  0  0
 30 28  1  0  0  0  0
 31 32  1  0  0  0  0
 31 33  1  0  0  0  0
 34 37  1  0  0  0  0
 34  3  1  0  0  0  0
 35 34  1  0  0  0  0
 36 34  1  0  0  0  0
 37 46  2  0  0  0  0
 37 38  1  0  0  0  0
 38 39  1  0  0  0  0
 38 40  2  0  0  0  0
 40 41  1  0  0  0  0
 42 40  1  0  0  0  0
 42 43  1  0  0  0  0
 44 42  2  0  0  0  0
 45 44  1  0  0  0  0
 46 44  1  0  0  0  0
M  END
