2,6
 OpenBabel05122313063D

 45 46  0  0  0  0  0  0  0  0999 V2000
    0.7592   -0.4146    1.1402 C   0  0  0  0  0  3  0  0  0  0  0  0
   -1.4897    1.9738    1.0650 S   0  0  0  0  0  1  0  0  0  0  0  0
   -0.0456    0.8878    2.0493 P   0  0  0  0  0  4  0  0  0  0  0  0
    1.1523    2.1139    2.6959 C   0  0  0  0  0  0  0  0  0  0  0  0
   -0.7707    0.2087    3.5883 C   0  0  0  0  0  0  0  0  0  0  0  0
   -2.0600   -2.0614    1.1699 S   0  0  0  0  0  1  0  0  0  0  0  0
   -0.0199   -2.0296    1.2264 P   0  0  0  0  0  4  0  0  0  0  0  0
    0.6104   -3.1374   -0.0870 C   0  0  0  0  0  0  0  0  0  0  0  0
    0.5211   -2.8821    2.7593 C   0  0  0  0  0  0  0  0  0  0  0  0
    0.0763   -0.1417   -2.0289 S   0  0  0  0  0  1  0  0  0  0  0  0
    1.3772    0.0220   -0.4802 P   0  0  0  0  0  4  0  0  0  0  0  0
    2.0738    1.7233   -0.4195 C   0  0  0  0  0  0  0  0  0  0  0  0
    1.3049    2.7895   -0.9228 C   0  0  0  0  0  0  0  0  0  0  0  0
    1.8028    4.0989   -0.8526 C   0  0  0  0  0  0  0  0  0  0  0  0
    3.0705    4.3446   -0.3008 C   0  0  0  0  0  0  0  0  0  0  0  0
    3.8501    3.2762    0.1743 C   0  0  0  0  0  0  0  0  0  0  0  0
    3.3554    1.9654    0.1160 C   0  0  0  0  0  0  0  0  0  0  0  0
    2.8597   -1.0258   -0.7785 C   0  0  0  0  0  0  0  0  0  0  0  0
    3.2266   -1.3502   -2.0968 C   0  0  0  0  0  0  0  0  0  0  0  0
    4.3764   -2.1191   -2.3300 C   0  0  0  0  0  0  0  0  0  0  0  0
    5.1591   -2.5654   -1.2523 C   0  0  0  0  0  0  0  0  0  0  0  0
    4.7924   -2.2414    0.0645 C   0  0  0  0  0  0  0  0  0  0  0  0
    3.6439   -1.4713    0.3042 C   0  0  0  0  0  0  0  0  0  0  0  0
    1.9757    1.5867    3.2157 H   0  0  0  0  0  0  0  0  0  0  0  0
    1.5575    2.7359    1.8806 H   0  0  0  0  0  0  0  0  0  0  0  0
    0.6027    2.7624    3.4058 H   0  0  0  0  0  0  0  0  0  0  0  0
   -1.5150   -0.5680    3.3255 H   0  0  0  0  0  0  0  0  0  0  0  0
    0.0183   -0.1927    4.2540 H   0  0  0  0  0  0  0  0  0  0  0  0
   -1.2886    1.0543    4.0802 H   0  0  0  0  0  0  0  0  0  0  0  0
    1.6911   -3.3433    0.0233 H   0  0  0  0  0  0  0  0  0  0  0  0
    0.3991   -2.6830   -1.0742 H   0  0  0  0  0  0  0  0  0  0  0  0
    0.0193   -4.0675    0.0201 H   0  0  0  0  0  0  0  0  0  0  0  0
    0.0684   -3.8926    2.7719 H   0  0  0  0  0  0  0  0  0  0  0  0
    1.6264   -2.9569    2.7616 H   0  0  0  0  0  0  0  0  0  0  0  0
    0.1822   -2.3297    3.6526 H   0  0  0  0  0  0  0  0  0  0  0  0
    0.3191    2.5775   -1.3616 H   0  0  0  0  0  0  0  0  0  0  0  0
    1.1946    4.9319   -1.2358 H   0  0  0  0  0  0  0  0  0  0  0  0
    3.4595    5.3730   -0.2513 H   0  0  0  0  0  0  0  0  0  0  0  0
    4.8515    3.4639    0.5901 H   0  0  0  0  0  0  0  0  0  0  0  0
    3.9689    1.1318    0.4873 H   0  0  0  0  0  0  0  0  0  0  0  0
    2.5891   -1.0127   -2.9293 H   0  0  0  0  0  0  0  0  0  0  0  0
    4.6593   -2.3778   -3.3616 H   0  0  0  0  0  0  0  0  0  0  0  0
    6.0568   -3.1741   -1.4391 H   0  0  0  0  0  0  0  0  0  0  0  0
    5.4019   -2.5949    0.9102 H   0  0  0  0  0  0  0  0  0  0  0  0
    3.3281   -1.2241    1.3303 H   0  0  0  0  0  0  0  0  0  0  0  0
  1  7  1  0  0  0  0
  1  3  1  0  0  0  0
  2  3  1  0  0  0  0
  3  4  1  0  0  0  0
  3  5  1  0  0  0  0
  4 24  1  0  0  0  0
  4 26  1  0  0  0  0
  5 29  1  0  0  0  0
  5 28  1  0  0  0  0
  6  7  1  0  0  0  0
  7  9  1  0  0  0  0
  8 32  1  0  0  0  0
  8 30  1  0  0  0  0
  8  7  1  0  0  0  0
  9 34  1  0  0  0  0
  9 33  1  0  0  0  0
  9 35  1  0  0  0  0
 10 11  1  0  0  0  0
 11 12  1  0  0  0  0
 11  1  1  0  0  0  0
 12 17  1  0  0  0  0
 13 14  1  0  0  0  0
 13 12  2  0  0  0  0
 14 15  2  0  0  0  0
 15 38  1  0  0  0  0
 15 16  1  0  0  0  0
 16 39  1  0  0  0  0
 17 16  2  0  0  0  0
 17 40  1  0  0  0  0
 18 11  1  0  0  0  0
 18 23  1  0  0  0  0
 19 18  2  0  0  0  0
 20 19  1  0  0  0  0
 20 21  2  0  0  0  0
 21 22  1  0  0  0  0
 22 23  2  0  0  0  0
 22 44  1  0  0  0  0
 23 45  1  0  0  0  0
 25  4  1  0  0  0  0
 27  5  1  0  0  0  0
 31  8  1  0  0  0  0
 36 13  1  0  0  0  0
 37 14  1  0  0  0  0
 41 19  1  0  0  0  0
 42 20  1  0  0  0  0
 43 21  1  0  0  0  0
M  END
