1,2
 OpenBabel05122313063D

 35 36  0  0  1  0  0  0  0  0999 V2000
   -1.6166   -1.6219   -0.3866 S   0  0  0  0  0  1  0  0  0  0  0  0
   -1.6919    1.4538    0.6921 S   0  0  0  0  0  1  0  0  0  0  0  0
   -3.1001   -0.7933   -0.0783 C   0  0  0  0  0  0  0  0  0  0  0  0
   -3.1313    0.5919    0.2605 C   0  0  0  0  0  0  0  0  0  0  0  0
   -4.3015   -1.4601   -0.1954 N   0  0  0  0  0  0  0  0  0  0  0  0
   -4.3432    1.2417    0.2779 N   0  0  0  0  0  0  0  0  0  0  0  0
   -4.4139   -2.8473   -0.6421 C   0  0  0  0  0  0  0  0  0  0  0  0
   -5.0218   -1.1666    0.4728 H   0  0  0  0  0  0  0  0  0  0  0  0
   -4.4350    2.7128    0.0697 C   0  0  1  0  0  0  0  0  0  0  0  0
   -5.0735    0.7541   -0.2704 H   0  0  0  0  0  0  0  0  0  0  0  0
   -4.0616   -3.8860    0.4697 C   0  0  0  0  0  0  0  0  0  0  0  0
   -5.8832   -3.1541   -0.9894 C   0  0  0  0  0  0  0  0  0  0  0  0
   -3.7389   -2.9460   -1.5154 H   0  0  0  0  0  0  0  0  0  0  0  0
   -5.1211    3.0066   -1.1933 C   0  0  0  0  0  3  0  0  0  0  0  0
   -5.2761    3.4344    1.1535 C   0  0  0  0  0  0  0  0  0  0  0  0
   -3.3548    3.0380    0.0954 H   0  0  0  0  0  0  0  0  0  0  0  0
   -5.4157   -4.4397    0.9934 C   0  0  0  0  0  0  0  0  0  0  0  0
   -3.4233   -4.6899    0.0539 H   0  0  0  0  0  0  0  0  0  0  0  0
   -3.4582   -3.3980    1.2598 H   0  0  0  0  0  0  0  0  0  0  0  0
   -6.5002   -3.5451    0.3616 C   0  0  0  0  0  0  0  0  0  0  0  0
   -5.9134   -4.0237   -1.6789 H   0  0  0  0  0  0  0  0  0  0  0  0
   -6.3797   -2.3051   -1.5007 H   0  0  0  0  0  0  0  0  0  0  0  0
   -6.2815    3.9231   -0.9977 C   0  0  0  0  0  0  0  0  0  0  0  0
   -4.7764    2.6128   -2.1603 H   0  0  0  0  0  0  0  0  0  0  0  0
   -5.9817    4.5599    0.3799 C   0  0  0  0  0  0  0  0  0  0  0  0
   -4.6633    3.7835    2.0072 H   0  0  0  0  0  0  0  0  0  0  0  0
   -6.0205    2.7128    1.5531 H   0  0  0  0  0  0  0  0  0  0  0  0
   -5.5575   -5.4852    0.6490 H   0  0  0  0  0  0  0  0  0  0  0  0
   -5.4722   -4.4618    2.0996 H   0  0  0  0  0  0  0  0  0  0  0  0
   -7.4846   -4.0453    0.2675 H   0  0  0  0  0  0  0  0  0  0  0  0
   -6.6704   -2.6377    0.9846 H   0  0  0  0  0  0  0  0  0  0  0  0
   -6.3971    4.6668   -1.8177 H   0  0  0  0  0  0  0  0  0  0  0  0
   -7.2650    3.3830   -0.9594 H   0  0  0  0  0  0  0  0  0  0  0  0
   -5.2888    5.4164    0.2432 H   0  0  0  0  0  0  0  0  0  0  0  0
   -6.8848    4.9404    0.8984 H   0  0  0  0  0  0  0  0  0  0  0  0
  1  3  1  0  0  0  0
  3  4  2  0  0  0  0
  4  6  1  0  0  0  0
  4  2  1  0  0  0  0
  5  3  1  0  0  0  0
  5  8  1  0  0  0  0
  7  5  1  0  0  0  0
  7 11  1  0  0  0  0
  9 16  1  6  0  0  0
  9  6  1  0  0  0  0
  9 15  1  0  0  0  0
 10  6  1  0  0  0  0
 11 17  1  0  0  0  0
 11 19  1  0  0  0  0
 12  7  1  0  0  0  0
 12 20  1  0  0  0  0
 13  7  1  0  0  0  0
 14 23  1  0  0  0  0
 14  9  1  0  0  0  0
 15 27  1  0  0  0  0
 15 26  1  0  0  0  0
 17 29  1  0  0  0  0
 18 11  1  0  0  0  0
 20 31  1  0  0  0  0
 20 17  1  0  0  0  0
 21 12  1  0  0  0  0
 22 12  1  0  0  0  0
 23 33  1  0  0  0  0
 23 25  1  0  0  0  0
 24 14  1  0  0  0  0
 25 35  1  0  0  0  0
 25 15  1  0  0  0  0
 28 17  1  0  0  0  0
 30 20  1  0  0  0  0
 32 23  1  0  0  0  0
 34 25  1  0  0  0  0
M  END
