1,2
 OpenBabel05122313063D

 24 23  0  0  0  0  0  0  0  0999 V2000
   -1.8810   -1.3472    0.5136 S   0  0  0  0  0  1  0  0  0  0  0  0
   -1.8810    1.3472   -0.5137 S   0  0  0  0  0  1  0  0  0  0  0  0
   -4.1856    0.0000    0.0000 N   0  0  0  0  0  0  0  0  0  0  0  0
   -2.8378   -0.0000   -0.0000 C   0  0  0  0  0  3  0  0  0  0  0  0
   -4.9348   -1.1683    0.4625 C   0  0  0  0  0  0  0  0  0  0  0  0
   -5.2266   -2.1787   -0.6530 C   0  0  0  0  0  0  0  0  0  0  0  0
   -6.0071   -3.3894   -0.1440 C   0  0  0  0  0  0  0  0  0  0  0  0
   -4.9348    1.1684   -0.4625 C   0  0  0  0  0  0  0  0  0  0  0  0
   -5.2264    2.1788    0.6530 C   0  0  0  0  0  0  0  0  0  0  0  0
   -6.0067    3.3896    0.1440 C   0  0  0  0  0  0  0  0  0  0  0  0
   -4.3457   -1.6535    1.2697 H   0  0  0  0  0  0  0  0  0  0  0  0
   -5.8787   -0.8041    0.9212 H   0  0  0  0  0  0  0  0  0  0  0  0
   -4.2562   -2.4985   -1.0873 H   0  0  0  0  0  0  0  0  0  0  0  0
   -5.7882   -1.6722   -1.4681 H   0  0  0  0  0  0  0  0  0  0  0  0
   -6.2090   -4.1108   -0.9600 H   0  0  0  0  0  0  0  0  0  0  0  0
   -6.9853   -3.0930    0.2899 H   0  0  0  0  0  0  0  0  0  0  0  0
   -5.4425   -3.9278    0.6452 H   0  0  0  0  0  0  0  0  0  0  0  0
   -4.3457    1.6535   -1.2698 H   0  0  0  0  0  0  0  0  0  0  0  0
   -5.8788    0.8042   -0.9210 H   0  0  0  0  0  0  0  0  0  0  0  0
   -4.2559    2.4985    1.0873 H   0  0  0  0  0  0  0  0  0  0  0  0
   -5.7880    1.6724    1.4681 H   0  0  0  0  0  0  0  0  0  0  0  0
   -6.2084    4.1111    0.9600 H   0  0  0  0  0  0  0  0  0  0  0  0
   -6.9850    3.0934   -0.2899 H   0  0  0  0  0  0  0  0  0  0  0  0
   -5.4421    3.9279   -0.6452 H   0  0  0  0  0  0  0  0  0  0  0  0
  2  4  1  0  0  0  0
  3  5  1  0  0  0  0
  4  3  1  0  0  0  0
  4  1  1  0  0  0  0
  5 12  1  0  0  0  0
  5 11  1  0  0  0  0
  6  7  1  0  0  0  0
  6  5  1  0  0  0  0
  7 16  1  0  0  0  0
  7 17  1  0  0  0  0
  8  3  1  0  0  0  0
  8  9  1  0  0  0  0
  9 20  1  0  0  0  0
  9 21  1  0  0  0  0
 10  9  1  0  0  0  0
 10 22  1  0  0  0  0
 13  6  1  0  0  0  0
 14  6  1  0  0  0  0
 15  7  1  0  0  0  0
 18  8  1  0  0  0  0
 19  8  1  0  0  0  0
 23 10  1  0  0  0  0
 24 10  1  0  0  0  0
M  END
