4,6
 OpenBabel05122313063D

 20 21  0  0  0  0  0  0  0  0999 V2000
    7.0144    0.1745   -1.3280 C   0  0  0  0  0  0  0  0  0  0  0  0
    8.0934   -0.6965   -1.6613 C   0  0  0  0  0  0  0  0  0  0  0  0
    8.0047   -2.0609   -1.4374 C   0  0  0  0  0  0  0  0  0  0  0  0
    2.5546    0.9852    1.2420 S   0  0  0  0  0  1  0  0  0  0  0  0
    6.8309   -2.6022   -0.8538 C   0  0  0  0  0  0  0  0  0  0  0  0
    2.5369   -1.2649   -0.4797 S   0  0  0  0  0  1  0  0  0  0  0  0
    5.7587   -1.7835   -0.5258 C   0  0  0  0  0  0  0  0  0  0  0  0
    5.8019   -0.3797   -0.7677 C   0  0  0  0  0  0  0  0  0  0  0  0
    3.4182    0.0895    0.0709 C   0  0  0  0  0  3  0  0  0  0  0  0
    4.7223    0.5279   -0.4401 C   0  0  0  0  0  0  0  0  0  0  0  0
    4.8998    1.9071   -0.6266 C   0  0  0  0  0  0  0  0  0  0  0  0
    6.0924    2.4338   -1.1682 C   0  0  0  0  0  0  0  0  0  0  0  0
    7.1262    1.5811   -1.5245 C   0  0  0  0  0  0  0  0  0  0  0  0
    4.8635   -2.2233   -0.0665 H   0  0  0  0  0  0  0  0  0  0  0  0
    4.0657    2.5797   -0.3768 H   0  0  0  0  0  0  0  0  0  0  0  0
    6.1856    3.5191   -1.3213 H   0  0  0  0  0  0  0  0  0  0  0  0
    8.0546    1.9793   -1.9627 H   0  0  0  0  0  0  0  0  0  0  0  0
    9.0062   -0.2575   -2.0930 H   0  0  0  0  0  0  0  0  0  0  0  0
    8.8452   -2.7218   -1.6973 H   0  0  0  0  0  0  0  0  0  0  0  0
    6.7688   -3.6822   -0.6519 H   0  0  0  0  0  0  0  0  0  0  0  0
  1  8  1  0  0  0  0
  2  3  2  0  0  0  0
  2  1  1  0  0  0  0
  3  5  1  0  0  0  0
  5 20  1  0  0  0  0
  5  7  2  0  0  0  0
  6  9  1  0  0  0  0
  7 14  1  0  0  0  0
  8  7  1  0  0  0  0
  8 10  2  0  0  0  0
  9  4  1  0  0  0  0
 10  9  1  0  0  0  0
 11 10  1  0  0  0  0
 11 15  1  0  0  0  0
 12 11  2  0  0  0  0
 13  1  2  0  0  0  0
 13 12  1  0  0  0  0
 16 12  1  0  0  0  0
 17 13  1  0  0  0  0
 18  2  1  0  0  0  0
 19  3  1  0  0  0  0
M  END
