1,2
 OpenBabel05122313063D

 14 15  0  0  0  0  0  0  0  0999 V2000
   -0.9660   -1.5815    0.5224 S   0  0  0  0  0  1  0  0  0  0  0  0
   -0.9591    1.3951   -0.5536 S   0  0  0  0  0  1  0  0  0  0  0  0
   -6.4890   -1.6339    0.0911 S   0  0  0  0  0  0  0  0  0  0  0  0
   -6.4938    1.2495   -0.7481 S   0  0  0  0  0  0  0  0  0  0  0  0
   -8.7047   -0.2314   -0.4504 O   0  0  0  0  0  0  0  0  0  0  0  0
   -2.4912   -0.7994    0.1094 C   0  0  0  0  0  0  0  0  0  0  0  0
   -2.4924    0.5586   -0.3144 C   0  0  0  0  0  0  0  0  0  0  0  0
   -4.9203   -0.8465   -0.0424 C   0  0  0  0  0  0  0  0  0  0  0  0
   -4.9226    0.5183   -0.4395 C   0  0  0  0  0  0  0  0  0  0  0  0
   -3.7091   -1.4990    0.2268 C   0  0  0  0  0  0  0  0  0  0  0  0
   -3.7004   -2.5534    0.5407 H   0  0  0  0  0  0  0  0  0  0  0  0
   -3.7130    1.2143   -0.5720 C   0  0  0  0  0  0  0  0  0  0  0  0
   -3.7068    2.2690   -0.8848 H   0  0  0  0  0  0  0  0  0  0  0  0
   -7.4988   -0.2100   -0.3839 C   0  0  0  0  0  0  0  0  0  0  0  0
  2  7  1  0  0  0  0
  4  9  1  0  0  0  0
  4 14  1  0  0  0  0
  5 14  2  0  0  0  0
  6 10  1  0  0  0  0
  6  1  1  0  0  0  0
  7  6  2  0  0  0  0
  8  3  1  0  0  0  0
  8 10  2  0  0  0  0
  9  8  1  0  0  0  0
 10 11  1  0  0  0  0
 12  9  2  0  0  0  0
 12  7  1  0  0  0  0
 13 12  1  0  0  0  0
 14  3  1  0  0  0  0
M  END
