1,8
 OpenBabel05122313063D

 14 14  0  0  0  0  0  0  0  0999 V2000
   -2.2425   -1.5003    0.6119 S   0  0  0  0  0  1  0  0  0  0  0  0
   -3.7350   -0.6600    0.2702 C   0  0  0  0  0  0  0  0  0  0  0  0
   -6.1868   -0.6653    0.2717 C   0  0  0  0  0  0  0  0  0  0  0  0
   -4.9648   -1.3027    0.5321 C   0  0  0  0  0  0  0  0  0  0  0  0
   -4.9651   -2.3207    0.9474 H   0  0  0  0  0  0  0  0  0  0  0  0
   -7.4150   -1.3446    0.5490 C   0  0  0  0  0  0  0  0  0  0  0  0
   -8.4103   -1.9222    0.7848 N   0  0  0  0  0  0  0  0  0  0  0  0
   -2.2425    1.5002   -0.6120 S   0  0  0  0  0  1  0  0  0  0  0  0
   -3.7350    0.6599   -0.2703 C   0  0  0  0  0  0  0  0  0  0  0  0
   -6.1868    0.6652   -0.2716 C   0  0  0  0  0  0  0  0  0  0  0  0
   -4.9648    1.3026   -0.5321 C   0  0  0  0  0  0  0  0  0  0  0  0
   -4.9652    2.3207   -0.9474 H   0  0  0  0  0  0  0  0  0  0  0  0
   -7.4150    1.3445   -0.5489 C   0  0  0  0  0  0  0  0  0  0  0  0
   -8.4103    1.9221   -0.7847 N   0  0  0  0  0  0  0  0  0  0  0  0
  2  4  1  0  0  0  0
  2  1  1  0  0  0  0
  3  4  2  0  0  0  0
  3  6  1  0  0  0  0
  4  5  1  0  0  0  0
  6  7  3  0  0  0  0
  8  9  1  0  0  0  0
  9  2  2  0  0  0  0
 10  3  1  0  0  0  0
 11 10  2  0  0  0  0
 11  9  1  0  0  0  0
 12 11  1  0  0  0  0
 13 10  1  0  0  0  0
 14 13  3  0  0  0  0
M  END
