1,21
 OpenBabel05122313063D

 40 42  0  0  0  0  0  0  0  0999 V2000
    1.0681   -1.4655    0.6551 S   0  0  0  0  0  1  0  0  0  0  0  0
    3.4099   -3.7035    0.4182 C   0  0  0  0  0  0  0  0  0  0  0  0
    2.5375   -0.6508    0.3177 C   0  0  0  0  0  0  0  0  0  0  0  0
    3.7279   -1.2390    0.6663 N   0  0  0  0  0  0  0  0  0  0  0  0
    4.9448   -0.4403    0.6197 C   0  0  0  0  0  0  0  0  0  0  0  0
    5.0401    0.1905    1.5357 H   0  0  0  0  0  0  0  0  0  0  0  0
    5.8158   -1.1227    0.5882 H   0  0  0  0  0  0  0  0  0  0  0  0
    2.6921   -4.8058    0.9163 C   0  0  0  0  0  0  0  0  0  0  0  0
    2.3253   -4.7911    1.9549 H   0  0  0  0  0  0  0  0  0  0  0  0
    3.7400   -2.5357    1.3345 C   0  0  0  0  0  0  0  0  0  0  0  0
    3.0234   -2.5199    2.1866 H   0  0  0  0  0  0  0  0  0  0  0  0
    4.7539   -2.6666    1.7666 H   0  0  0  0  0  0  0  0  0  0  0  0
    2.4249   -5.9107    0.0953 C   0  0  0  0  0  0  0  0  0  0  0  0
    1.8558   -6.7633    0.4952 H   0  0  0  0  0  0  0  0  0  0  0  0
    3.8460   -3.7188   -0.9192 C   0  0  0  0  0  0  0  0  0  0  0  0
    4.3898   -2.8512   -1.3250 H   0  0  0  0  0  0  0  0  0  0  0  0
    2.8650   -5.9203   -1.2375 C   0  0  0  0  0  0  0  0  0  0  0  0
    2.6465   -6.7823   -1.8854 H   0  0  0  0  0  0  0  0  0  0  0  0
    3.5740   -4.8197   -1.7439 C   0  0  0  0  0  0  0  0  0  0  0  0
    3.9138   -4.8166   -2.7906 H   0  0  0  0  0  0  0  0  0  0  0  0
    1.0681    1.4655   -0.6551 S   0  0  0  0  0  1  0  0  0  0  0  0
    3.4098    3.7035   -0.4182 C   0  0  0  0  0  0  0  0  0  0  0  0
    2.5375    0.6508   -0.3177 C   0  0  0  0  0  0  0  0  0  0  0  0
    3.7279    1.2391   -0.6662 N   0  0  0  0  0  0  0  0  0  0  0  0
    4.9448    0.4405   -0.6195 C   0  0  0  0  0  0  0  0  0  0  0  0
    5.0403   -0.1903   -1.5355 H   0  0  0  0  0  0  0  0  0  0  0  0
    5.8158    1.1229   -0.5879 H   0  0  0  0  0  0  0  0  0  0  0  0
    2.6922    4.8059   -0.9163 C   0  0  0  0  0  0  0  0  0  0  0  0
    2.3257    4.7914   -1.9550 H   0  0  0  0  0  0  0  0  0  0  0  0
    3.7400    2.5358   -1.3345 C   0  0  0  0  0  0  0  0  0  0  0  0
    3.0233    2.5200   -2.1866 H   0  0  0  0  0  0  0  0  0  0  0  0
    4.7538    2.6667   -1.7666 H   0  0  0  0  0  0  0  0  0  0  0  0
    2.4250    5.9108   -0.0954 C   0  0  0  0  0  0  0  0  0  0  0  0
    1.8561    6.7636   -0.4954 H   0  0  0  0  0  0  0  0  0  0  0  0
    3.8455    3.7187    0.9194 C   0  0  0  0  0  0  0  0  0  0  0  0
    4.3891    2.8510    1.3252 H   0  0  0  0  0  0  0  0  0  0  0  0
    2.8647    5.9203    1.2376 C   0  0  0  0  0  0  0  0  0  0  0  0
    2.6462    6.7823    1.8855 H   0  0  0  0  0  0  0  0  0  0  0  0
    3.5735    4.8196    1.7441 C   0  0  0  0  0  0  0  0  0  0  0  0
    3.9130    4.8164    2.7909 H   0  0  0  0  0  0  0  0  0  0  0  0
  2  8  1  0  0  0  0
  2 10  1  0  0  0  0
  3  1  1  0  0  0  0
  3  4  1  0  0  0  0
  4 10  1  0  0  0  0
  5  4  1  0  0  0  0
  5  6  1  0  0  0  0
  7  5  1  0  0  0  0
  8  9  1  0  0  0  0
 10 12  1  0  0  0  0
 10 11  1  0  0  0  0
 13 14  1  0  0  0  0
 13  8  2  0  0  0  0
 15  2  2  0  0  0  0
 16 15  1  0  0  0  0
 17 13  1  0  0  0  0
 18 17  1  0  0  0  0
 19 17  2  0  0  0  0
 19 15  1  0  0  0  0
 20 19  1  0  0  0  0
 21 23  1  0  0  0  0
 22 35  1  0  0  0  0
 23  3  2  0  0  0  0
 24 25  1  0  0  0  0
 24 23  1  0  0  0  0
 25 27  1  0  0  0  0
 25  5  1  0  0  0  0
 26 25  1  0  0  0  0
 28 22  2  0  0  0  0
 28 33  1  0  0  0  0
 29 28  1  0  0  0  0
 30 24  1  0  0  0  0
 30 22  1  0  0  0  0
 31 30  1  0  0  0  0
 32 30  1  0  0  0  0
 33 37  2  0  0  0  0
 34 33  1  0  0  0  0
 35 36  1  0  0  0  0
 35 39  2  0  0  0  0
 37 39  1  0  0  0  0
 37 38  1  0  0  0  0
 39 40  1  0  0  0  0
M  END
