2,3
 OpenBabel05122313063D

 18 18  0  0  1  0  0  0  0  0999 V2000
   -7.2479    0.5992    0.0002 Se  0  0  0  0  0  1  0  0  0  0  0  0
   -1.3812    1.9539   -0.0003 S   0  0  0  0  0  1  0  0  0  0  0  0
   -1.9183   -1.4156   -0.0000 S   0  0  0  0  0  1  0  0  0  0  0  0
   -4.4788    2.0350   -0.0002 S   0  0  0  0  0  0  0  0  0  0  0  0
   -4.5497   -0.5195    0.0002 N   0  0  0  0  0  0  0  0  0  0  0  0
   -3.1801   -0.1845    0.0000 C   0  0  0  0  0  0  0  0  0  0  0  0
   -2.9424    1.1704   -0.0002 C   0  0  0  0  0  0  0  0  0  0  0  0
   -5.4146    0.5477    0.0001 C   0  0  2  0  0  3  0  0  0  0  0  0
   -4.9677   -1.9455    0.0004 C   0  0  0  0  0  0  0  0  0  0  0  0
   -4.0033   -2.4963    0.0006 H   0  0  0  0  0  0  0  0  0  0  0  0
   -5.7064   -2.3168    1.2887 C   0  0  0  0  0  0  0  0  0  0  0  0
   -6.6657   -1.7695    1.3676 H   0  0  0  0  0  0  0  0  0  0  0  0
   -5.0825   -2.0783    2.1728 H   0  0  0  0  0  0  0  0  0  0  0  0
   -5.9105   -3.4066    1.2921 H   0  0  0  0  0  0  0  0  0  0  0  0
   -5.7061   -2.3170   -1.2881 C   0  0  0  0  0  0  0  0  0  0  0  0
   -6.6652   -1.7695   -1.3674 H   0  0  0  0  0  0  0  0  0  0  0  0
   -5.9106   -3.4069   -1.2912 H   0  0  0  0  0  0  0  0  0  0  0  0
   -5.0818   -2.0791   -2.1720 H   0  0  0  0  0  0  0  0  0  0  0  0
  2  7  1  0  0  0  0
  3  6  1  0  0  0  0
  4  7  1  0  0  0  0
  4  8  1  0  0  0  0
  5  9  1  0  0  0  0
  6  5  1  0  0  0  0
  7  6  2  0  0  0  0
  8  1  1  6  0  0  0
  8  5  1  0  0  0  0
  9 10  1  0  0  0  0
  9 11  1  0  0  0  0
 11 14  1  0  0  0  0
 11 12  1  0  0  0  0
 11 13  1  0  0  0  0
 15  9  1  0  0  0  0
 16 15  1  0  0  0  0
 17 15  1  0  0  0  0
 18 15  1  0  0  0  0
M  END
