3,4
 OpenBabel05122313063D

 15 15  0  0  0  0  0  0  0  0999 V2000
   -4.1428   -1.8150   -0.0613 S   0  0  0  0  0  0  0  0  0  0  0  0
   -4.1428    1.8150    0.0616 S   0  0  0  0  0  0  0  0  0  0  0  0
   -1.2496   -1.5352   -0.0298 S   0  0  0  0  0  1  0  0  0  0  0  0
   -1.2496    1.5352    0.0294 S   0  0  0  0  0  1  0  0  0  0  0  0
   -5.4497   -0.9225    0.8738 C   0  0  0  0  0  0  0  0  0  0  0  0
   -6.2979   -0.0000    0.0004 C   0  0  0  0  0  0  0  0  0  0  0  0
   -5.4499    0.9225   -0.8732 C   0  0  0  0  0  0  0  0  0  0  0  0
   -2.7667   -0.7056   -0.0085 C   0  0  0  0  0  0  0  0  0  0  0  0
   -2.7667    0.7056    0.0084 C   0  0  0  0  0  0  0  0  0  0  0  0
   -4.9502   -0.3631    1.6893 H   0  0  0  0  0  0  0  0  0  0  0  0
   -6.0592   -1.7224    1.3394 H   0  0  0  0  0  0  0  0  0  0  0  0
   -6.9608    0.5954    0.6650 H   0  0  0  0  0  0  0  0  0  0  0  0
   -6.9609   -0.5954   -0.6641 H   0  0  0  0  0  0  0  0  0  0  0  0
   -4.9505    0.3631   -1.6888 H   0  0  0  0  0  0  0  0  0  0  0  0
   -6.0595    1.7224   -1.3387 H   0  0  0  0  0  0  0  0  0  0  0  0
  1  8  1  0  0  0  0
  1  5  1  0  0  0  0
  3  8  1  0  0  0  0
  5 11  1  0  0  0  0
  5 10  1  0  0  0  0
  6 12  1  0  0  0  0
  6  5  1  0  0  0  0
  7  6  1  0  0  0  0
  7  2  1  0  0  0  0
  8  9  2  0  0  0  0
  9  4  1  0  0  0  0
  9  2  1  0  0  0  0
 13  6  1  0  0  0  0
 14  7  1  0  0  0  0
 15  7  1  0  0  0  0
M  END
