5,6
 OpenBabel05122313063D

 26 28  0  0  1  0  0  0  0  0999 V2000
    0.2088    0.0001   -1.9455 S   0  0  0  0  0  0  0  0  0  0  0  0
    2.5677    1.5584   -0.7998 S   0  0  0  0  0  0  0  0  0  0  0  0
    2.5678   -1.5583   -0.8000 S   0  0  0  0  0  0  0  0  0  0  0  0
    2.4824   -0.0001    1.8103 S   0  0  0  0  0  0  0  0  0  0  0  0
   -0.0872   -1.4562    0.7629 S   0  0  0  0  0  0  0  0  0  0  0  0
   -0.0872    1.4560    0.7630 S   0  0  0  0  0  0  0  0  0  0  0  0
    0.7566    1.4158   -0.9352 C   0  0  2  0  0  0  0  0  0  0  0  0
    3.0406    0.0000    0.0522 C   0  0  2  0  0  0  0  0  0  0  0  0
    0.7567   -1.4157   -0.9353 C   0  0  1  0  0  0  0  0  0  0  0  0
    0.6952   -0.0001    1.6444 C   0  0  2  0  0  0  0  0  0  0  0  0
    0.2243    2.6679   -1.6342 C   0  0  0  0  0  0  0  0  0  0  0  0
    4.5719    0.0001    0.1029 C   0  0  0  0  0  0  0  0  0  0  0  0
    0.2245   -2.6679   -1.6345 C   0  0  0  0  0  0  0  0  0  0  0  0
    0.1245   -0.0002    3.0648 C   0  0  0  0  0  0  0  0  0  0  0  0
    0.5748    3.5784   -1.1086 H   0  0  0  0  0  0  0  0  0  0  0  0
   -0.8874    2.6457   -1.6242 H   0  0  0  0  0  0  0  0  0  0  0  0
    0.5852    2.6931   -2.6821 H   0  0  0  0  0  0  0  0  0  0  0  0
    4.9815    0.0001   -0.9265 H   0  0  0  0  0  0  0  0  0  0  0  0
    4.9330   -0.9021    0.6363 H   0  0  0  0  0  0  0  0  0  0  0  0
    4.9329    0.9022    0.6364 H   0  0  0  0  0  0  0  0  0  0  0  0
    0.5749   -3.5783   -1.1089 H   0  0  0  0  0  0  0  0  0  0  0  0
    0.5855   -2.6929   -2.6824 H   0  0  0  0  0  0  0  0  0  0  0  0
   -0.8872   -2.6457   -1.6246 H   0  0  0  0  0  0  0  0  0  0  0  0
   -0.9844   -0.0002    3.0373 H   0  0  0  0  0  0  0  0  0  0  0  0
    0.4733    0.9028    3.6047 H   0  0  0  0  0  0  0  0  0  0  0  0
    0.4733   -0.9033    3.6045 H   0  0  0  0  0  0  0  0  0  0  0  0
  1  9  1  0  0  0  0
  1  7  1  0  0  0  0
  2  8  1  0  0  0  0
  3  8  1  0  0  0  0
  5 10  1  0  0  0  0
  6 10  1  0  0  0  0
  7 11  1  6  0  0  0
  7  2  1  0  0  0  0
  7  6  1  0  0  0  0
  8 12  1  1  0  0  0
  8  4  1  0  0  0  0
  9 13  1  6  0  0  0
  9  3  1  0  0  0  0
  9  5  1  0  0  0  0
 10  4  1  0  0  0  0
 10 14  1  1  0  0  0
 11 16  1  0  0  0  0
 11 15  1  0  0  0  0
 12 19  1  0  0  0  0
 12 20  1  0  0  0  0
 13 23  1  0  0  0  0
 13 21  1  0  0  0  0
 14 26  1  0  0  0  0
 14 25  1  0  0  0  0
 17 11  1  0  0  0  0
 18 12  1  0  0  0  0
 22 13  1  0  0  0  0
 24 14  1  0  0  0  0
M  END
