1,2
 OpenBabel05122313063D

 13 12  0  0  0  0  0  0  0  0999 V2000
    1.2268   -1.1059   -1.6022 S   0  0  0  0  0  1  0  0  0  0  0  0
    0.5035   -1.3800    1.2978 S   0  0  0  0  0  1  0  0  0  0  0  0
    1.6647   -1.5376    0.0306 C   0  0  0  0  0  3  0  0  0  0  0  0
    2.9147   -1.9636    0.2671 N   0  0  0  0  0  0  0  0  0  0  0  0
    3.4833   -2.2887    1.5723 C   0  0  0  0  0  0  0  0  0  0  0  0
    3.2123   -3.7258    2.0501 C   0  0  0  0  0  0  0  0  0  0  0  0
    1.9709   -3.9146    2.6806 O   0  0  0  0  0  0  0  0  0  0  0  0
    3.5817   -1.8231   -0.5166 H   0  0  0  0  0  0  0  0  0  0  0  0
    3.0841   -1.5769    2.3289 H   0  0  0  0  0  0  0  0  0  0  0  0
    4.5767   -2.1294    1.4826 H   0  0  0  0  0  0  0  0  0  0  0  0
    3.3664   -4.4101    1.1752 H   0  0  0  0  0  0  0  0  0  0  0  0
    3.9955   -3.9875    2.7952 H   0  0  0  0  0  0  0  0  0  0  0  0
    1.2947   -3.4007    2.1880 H   0  0  0  0  0  0  0  0  0  0  0  0
  1  3  1  0  0  0  0
  3  4  1  0  0  0  0
  3  2  1  0  0  0  0
  4  5  1  0  0  0  0
  5  6  1  0  0  0  0
  5  9  1  0  0  0  0
  6  7  1  0  0  0  0
  6 12  1  0  0  0  0
  8  4  1  0  0  0  0
 10  5  1  0  0  0  0
 11  6  1  0  0  0  0
 13  7  1  0  0  0  0
M  END
