1,2
 OpenBabel05122313063D

 12 11  0  0  0  0  0  0  0  0999 V2000
    2.3148    1.6630   -0.9658 S   0  0  0  0  0  1  0  0  0  0  0  0
   -0.5453    2.8557   -1.3690 S   0  0  0  0  0  1  0  0  0  0  0  0
    1.4334    3.5666   -1.2157 P   0  0  0  0  0  0  0  0  0  0  0  0
    1.9681    4.4778   -2.2760 O   0  0  0  0  0  0  0  0  0  0  0  0
    1.5532    4.3199    0.2536 O   0  0  0  0  0  0  0  0  0  0  0  0
    1.0538    3.7312    1.4558 C   0  0  0  0  0  0  0  0  0  0  0  0
    1.8819    3.7531    2.1986 H   0  0  0  0  0  0  0  0  0  0  0  0
    0.8020    2.6597    1.2764 H   0  0  0  0  0  0  0  0  0  0  0  0
   -0.1694    4.4772    1.9606 C   0  0  0  0  0  0  0  0  0  0  0  0
    0.0567    5.5511    2.1136 H   0  0  0  0  0  0  0  0  0  0  0  0
   -0.5122    4.0495    2.9259 H   0  0  0  0  0  0  0  0  0  0  0  0
   -0.9910    4.3894    1.2220 H   0  0  0  0  0  0  0  0  0  0  0  0
  2  3  1  0  0  0  0
  3  1  1  0  0  0  0
  3  5  1  0  0  0  0
  4  3  2  0  0  0  0
  5  6  1  0  0  0  0
  6  9  1  0  0  0  0
  6  7  1  0  0  0  0
  8  6  1  0  0  0  0
  9 10  1  0  0  0  0
  9 11  1  0  0  0  0
 12  9  1  0  0  0  0
M  END
