1,2
 OpenBabel05122313063D

  6  5  0  0  0  0  0  0  0  0999 V2000
   -2.1571   -1.7930   -1.7163 S   0  0  0  0  0  0  0  0  0  0  0  0
    0.2081   -2.8690    0.2858 S   0  0  0  0  0  0  0  0  0  0  0  0
   -1.2516   -3.8738    0.0427 C   0  0  0  0  0  0  0  0  0  0  0  0
   -3.3615   -4.0554   -1.0798 O   0  0  0  0  0  0  0  0  0  0  0  0
   -1.3707   -4.9695    0.5584 O   0  0  0  0  0  0  0  0  0  0  0  0
   -2.3835   -3.3500   -0.9000 C   0  0  0  0  0  0  0  0  0  0  0  0
  1  6  1  0  0  0  0
  3  2  1  0  0  0  0
  3  5  2  0  0  0  0
  4  6  2  0  0  0  0
  6  3  1  0  0  0  0
M  END
