1,2
 OpenBabel05122313063D

 34 35  0  0  0  0  0  0  0  0999 V2000
   -2.4519   -1.3946   -1.0613 S   0  0  0  0  0  0  0  0  0  0  0  0
   -1.8140    1.7946   -0.9426 S   0  0  0  0  0  0  0  0  0  0  0  0
    1.5137    1.4283   -1.1604 O   0  0  0  0  0  0  0  0  0  0  0  0
    0.7829   -1.1248   -0.8602 O   0  0  0  0  0  0  0  0  0  0  0  0
    6.9411   -0.3092    0.8638 O   0  0  0  0  0  0  0  0  0  0  0  0
    0.8956    2.1807   -0.1039 C   0  0  0  0  0  0  0  0  0  0  0  0
    2.4467    0.5314   -0.6905 C   0  0  0  0  0  0  0  0  0  0  0  0
    3.7544    0.9239   -0.4043 C   0  0  0  0  0  0  0  0  0  0  0  0
    4.0468    1.9708   -0.5847 H   0  0  0  0  0  0  0  0  0  0  0  0
    4.6851    0.0001    0.1156 C   0  0  0  0  0  0  0  0  0  0  0  0
    4.2757   -1.3254    0.3618 C   0  0  0  0  0  0  0  0  0  0  0  0
    5.0118   -2.0246    0.7862 H   0  0  0  0  0  0  0  0  0  0  0  0
    2.9720   -1.7355    0.0725 C   0  0  0  0  0  0  0  0  0  0  0  0
    2.0494   -0.8194   -0.4790 C   0  0  0  0  0  0  0  0  0  0  0  0
    0.2046   -2.3590   -0.4413 C   0  0  0  0  0  0  0  0  0  0  0  0
   -1.0676   -2.6160   -1.2216 C   0  0  0  0  0  0  0  0  0  0  0  0
   -2.2496   -0.3439   -2.5754 C   0  0  0  0  0  0  0  0  0  0  0  0
   -1.9585   -1.0070   -3.4150 H   0  0  0  0  0  0  0  0  0  0  0  0
   -3.2788    0.0198   -2.7761 H   0  0  0  0  0  0  0  0  0  0  0  0
   -1.2704    0.8027   -2.4056 C   0  0  0  0  0  0  0  0  0  0  0  0
   -1.2831    1.4701   -3.2928 H   0  0  0  0  0  0  0  0  0  0  0  0
   -0.2409    0.4516   -2.2091 H   0  0  0  0  0  0  0  0  0  0  0  0
   -0.3592    2.8635   -0.6001 C   0  0  0  0  0  0  0  0  0  0  0  0
    6.0736    0.4205    0.4118 C   0  0  0  0  0  0  0  0  0  0  0  0
    1.5975    2.9689    0.2589 H   0  0  0  0  0  0  0  0  0  0  0  0
    0.6404    1.5309    0.7615 H   0  0  0  0  0  0  0  0  0  0  0  0
    2.6714   -2.7709    0.2804 H   0  0  0  0  0  0  0  0  0  0  0  0
   -0.0202   -2.3232    0.6485 H   0  0  0  0  0  0  0  0  0  0  0  0
    0.8910   -3.2094   -0.6527 H   0  0  0  0  0  0  0  0  0  0  0  0
   -1.5093   -3.5635   -0.8565 H   0  0  0  0  0  0  0  0  0  0  0  0
   -0.8745   -2.7169   -2.3087 H   0  0  0  0  0  0  0  0  0  0  0  0
   -0.1831    3.4609   -1.5181 H   0  0  0  0  0  0  0  0  0  0  0  0
   -0.7396    3.5257    0.2019 H   0  0  0  0  0  0  0  0  0  0  0  0
    6.2850    1.5096    0.1796 H   0  0  0  0  0  0  0  0  0  0  0  0
  2 23  1  0  0  0  0
  3  7  1  0  0  0  0
  3  6  1  0  0  0  0
  4 14  1  0  0  0  0
  4 15  1  0  0  0  0
  6 25  1  0  0  0  0
  6 26  1  0  0  0  0
  7 14  2  0  0  0  0
  7  8  1  0  0  0  0
  8 10  2  0  0  0  0
  9  8  1  0  0  0  0
 10 11  1  0  0  0  0
 10 24  1  0  0  0  0
 11 12  1  0  0  0  0
 13 27  1  0  0  0  0
 13 11  2  0  0  0  0
 14 13  1  0  0  0  0
 15 28  1  0  0  0  0
 16  1  1  0  0  0  0
 16 30  1  0  0  0  0
 16 15  1  0  0  0  0
 17 20  1  0  0  0  0
 17  1  1  0  0  0  0
 18 17  1  0  0  0  0
 19 17  1  0  0  0  0
 20 22  1  0  0  0  0
 20  2  1  0  0  0  0
 21 20  1  0  0  0  0
 23  6  1  0  0  0  0
 23 33  1  0  0  0  0
 24  5  2  0  0  0  0
 29 15  1  0  0  0  0
 31 16  1  0  0  0  0
 32 23  1  0  0  0  0
 34 24  1  0  0  0  0
M  END
