1,2
 OpenBabel05122313063D

 14 13  0  0  0  0  0  0  0  0999 V2000
    2.0250   -2.5044   -1.4323 S   0  0  0  0  0  1  0  0  0  0  0  0
    2.5326   -1.0836    1.2068 S   0  0  0  0  0  1  0  0  0  0  0  0
    3.0759   -1.8348   -0.2232 C   0  0  0  0  0  3  0  0  0  0  0  0
    4.3663   -1.9509   -0.5432 O   0  0  0  0  0  0  0  0  0  0  0  0
    5.4009   -1.3466    0.2945 C   0  0  0  0  0  0  0  0  0  0  0  0
    5.5574    0.1170   -0.0997 C   0  0  0  0  0  0  0  0  0  0  0  0
    6.6494   -2.1870    0.0858 C   0  0  0  0  0  0  0  0  0  0  0  0
    5.0441   -1.4139    1.3457 H   0  0  0  0  0  0  0  0  0  0  0  0
    6.3468    0.5927    0.5158 H   0  0  0  0  0  0  0  0  0  0  0  0
    4.6112    0.6671    0.0704 H   0  0  0  0  0  0  0  0  0  0  0  0
    5.8434    0.2060   -1.1674 H   0  0  0  0  0  0  0  0  0  0  0  0
    7.4752   -1.7977    0.7134 H   0  0  0  0  0  0  0  0  0  0  0  0
    6.9724   -2.1570   -0.9744 H   0  0  0  0  0  0  0  0  0  0  0  0
    6.4653   -3.2425    0.3650 H   0  0  0  0  0  0  0  0  0  0  0  0
  1  3  1  0  0  0  0
  3  2  1  0  0  0  0
  4  3  1  0  0  0  0
  4  5  1  0  0  0  0
  5  8  1  0  0  0  0
  6 10  1  0  0  0  0
  6  5  1  0  0  0  0
  6  9  1  0  0  0  0
  7  5  1  0  0  0  0
  7 14  1  0  0  0  0
  7 12  1  0  0  0  0
 11  6  1  0  0  0  0
 13  7  1  0  0  0  0
M  END
