1,2
 OpenBabel05122313063D

 15 14  0  0  0  0  0  0  0  0999 V2000
    2.2484    1.1716    1.4652 S   0  0  0  0  0  1  0  0  0  0  0  0
    2.0607   -1.4536   -1.5151 S   0  0  0  0  0  1  0  0  0  0  0  0
    1.8367   -1.7095    1.3750 O   0  0  0  0  0  0  0  0  0  0  0  0
    2.0772   -1.2544    2.7305 C   0  0  0  0  0  0  0  0  0  0  0  0
    2.9335   -0.0031    2.7228 C   0  0  0  0  0  0  0  0  0  0  0  0
    2.8406   -2.6185    0.8555 C   0  0  0  0  0  0  0  0  0  0  0  0
    2.4412   -2.9882   -0.5533 C   0  0  0  0  0  0  0  0  0  0  0  0
    2.5326   -2.0892    3.3075 H   0  0  0  0  0  0  0  0  0  0  0  0
    1.0746   -1.0376    3.1490 H   0  0  0  0  0  0  0  0  0  0  0  0
    3.9933   -0.2285    2.4795 H   0  0  0  0  0  0  0  0  0  0  0  0
    2.9153    0.4758    3.7232 H   0  0  0  0  0  0  0  0  0  0  0  0
    2.8785   -3.5053    1.5271 H   0  0  0  0  0  0  0  0  0  0  0  0
    3.8319   -2.1126    0.8651 H   0  0  0  0  0  0  0  0  0  0  0  0
    1.5447   -3.6429   -0.5476 H   0  0  0  0  0  0  0  0  0  0  0  0
    3.2676   -3.5429   -1.0427 H   0  0  0  0  0  0  0  0  0  0  0  0
  1  5  1  0  0  0  0
  2  7  1  0  0  0  0
  3  4  1  0  0  0  0
  4  9  1  0  0  0  0
  4  8  1  0  0  0  0
  5  4  1  0  0  0  0
  5 11  1  0  0  0  0
  6 13  1  0  0  0  0
  6  3  1  0  0  0  0
  6 12  1  0  0  0  0
  7 14  1  0  0  0  0
  7  6  1  0  0  0  0
 10  5  1  0  0  0  0
 15  7  1  0  0  0  0
M  END
