1,7
 OpenBabel05122313063D

 45 47  0  0  1  0  0  0  0  0999 V2000
   -1.6788   -0.1702    1.5405 S   0  0  0  0  0  1  0  0  0  0  0  0
   -3.8835    0.2582   -0.0518 N   0  0  0  0  0  0  0  0  0  0  0  0
   -5.3361   -1.6231   -0.7450 C   0  0  0  0  0  0  0  0  0  0  0  0
   -6.2171   -1.0294   -1.0640 H   0  0  0  0  0  0  0  0  0  0  0  0
   -5.7126   -2.6087   -0.4111 H   0  0  0  0  0  0  0  0  0  0  0  0
   -4.6660   -1.7902   -1.6102 H   0  0  0  0  0  0  0  0  0  0  0  0
    1.6788   -0.1702    1.5405 S   0  0  0  0  0  1  0  0  0  0  0  0
   -2.3498    1.8043   -0.3131 N   0  0  0  0  0  0  0  0  0  0  0  0
   -4.5788   -0.9750    0.4094 C   0  0  0  0  0  0  0  0  0  0  0  0
   -3.7435   -1.6402    0.7078 H   0  0  0  0  0  0  0  0  0  0  0  0
   -5.4491   -0.6547    1.6249 C   0  0  0  0  0  0  0  0  0  0  0  0
   -4.8451   -0.2262    2.4487 H   0  0  0  0  0  0  0  0  0  0  0  0
   -5.9186   -1.5860    1.9963 H   0  0  0  0  0  0  0  0  0  0  0  0
   -6.2600    0.0571    1.3680 H   0  0  0  0  0  0  0  0  0  0  0  0
    2.3498    1.8042   -0.3131 N   0  0  0  0  0  0  0  0  0  0  0  0
   -4.3848    1.1870   -0.9418 C   0  0  0  0  0  0  0  0  0  0  0  0
   -5.3697    1.0817   -1.4043 H   0  0  0  0  0  0  0  0  0  0  0  0
    3.8835    0.2581   -0.0518 N   0  0  0  0  0  0  0  0  0  0  0  0
   -3.4280    2.1558   -1.1138 C   0  0  0  0  0  0  0  0  0  0  0  0
   -3.4087    3.0349   -1.7643 H   0  0  0  0  0  0  0  0  0  0  0  0
   -2.6339    0.6240    0.3460 C   0  0  1  0  0  3  0  0  0  0  0  0
   -1.1421    2.5650   -0.1979 C   0  0  0  0  0  0  0  0  0  0  0  0
   -1.2113    3.9565   -0.0124 C   0  0  0  0  0  0  0  0  0  0  0  0
   -2.1775    4.4698    0.0892 H   0  0  0  0  0  0  0  0  0  0  0  0
    0.0000    4.6573    0.0702 C   0  0  0  0  0  0  0  0  0  0  0  0
    0.0001    5.7456    0.2270 H   0  0  0  0  0  0  0  0  0  0  0  0
    1.2113    3.9565   -0.0124 C   0  0  0  0  0  0  0  0  0  0  0  0
    2.1776    4.4698    0.0892 H   0  0  0  0  0  0  0  0  0  0  0  0
    1.1421    2.5650   -0.1979 C   0  0  0  0  0  0  0  0  0  0  0  0
    0.0000    1.8889   -0.3047 N   0  0  0  0  0  0  0  0  0  0  0  0
    3.4280    2.1557   -1.1139 C   0  0  0  0  0  0  0  0  0  0  0  0
    3.4086    3.0348   -1.7645 H   0  0  0  0  0  0  0  0  0  0  0  0
    4.3848    1.1869   -0.9418 C   0  0  0  0  0  0  0  0  0  0  0  0
    5.3696    1.0816   -1.4043 H   0  0  0  0  0  0  0  0  0  0  0  0
    2.6339    0.6240    0.3460 C   0  0  1  0  0  3  0  0  0  0  0  0
    4.5788   -0.9751    0.4094 C   0  0  0  0  0  0  0  0  0  0  0  0
    3.7435   -1.6401    0.7081 H   0  0  0  0  0  0  0  0  0  0  0  0
    5.4493   -0.6546    1.6249 C   0  0  0  0  0  0  0  0  0  0  0  0
    6.2602    0.0572    1.3677 H   0  0  0  0  0  0  0  0  0  0  0  0
    5.9187   -1.5858    1.9963 H   0  0  0  0  0  0  0  0  0  0  0  0
    4.8453   -0.2259    2.4486 H   0  0  0  0  0  0  0  0  0  0  0  0
    5.3360   -1.6232   -0.7449 C   0  0  0  0  0  0  0  0  0  0  0  0
    4.6659   -1.7904   -1.6100 H   0  0  0  0  0  0  0  0  0  0  0  0
    5.7126   -2.6088   -0.4109 H   0  0  0  0  0  0  0  0  0  0  0  0
    6.2170   -1.0296   -1.0641 H   0  0  0  0  0  0  0  0  0  0  0  0
  2 21  1  0  0  0  0
  2  9  1  0  0  0  0
  3  5  1  0  0  0  0
  3  9  1  0  0  0  0
  4  3  1  0  0  0  0
  6  3  1  0  0  0  0
  8 22  1  0  0  0  0
  8 21  1  0  0  0  0
  9 10  1  0  0  0  0
  9 11  1  0  0  0  0
 11 13  1  0  0  0  0
 11 12  1  0  0  0  0
 14 11  1  0  0  0  0
 15 29  1  0  0  0  0
 15 35  1  0  0  0  0
 16  2  1  0  0  0  0
 17 16  1  0  0  0  0
 18 35  1  0  0  0  0
 18 36  1  0  0  0  0
 19 16  2  0  0  0  0
 19  8  1  0  0  0  0
 20 19  1  0  0  0  0
 21  1  1  1  0  0  0
 22 23  1  0  0  0  0
 23 25  2  0  0  0  0
 23 24  1  0  0  0  0
 25 26  1  0  0  0  0
 27 25  1  0  0  0  0
 27 28  1  0  0  0  0
 29 27  2  0  0  0  0
 30 29  1  0  0  0  0
 30 22  2  0  0  0  0
 31 33  2  0  0  0  0
 31 15  1  0  0  0  0
 32 31  1  0  0  0  0
 33 18  1  0  0  0  0
 34 33  1  0  0  0  0
 35  7  1  1  0  0  0
 36 37  1  0  0  0  0
 36 38  1  0  0  0  0
 38 40  1  0  0  0  0
 38 41  1  0  0  0  0
 39 38  1  0  0  0  0
 42 44  1  0  0  0  0
 42 36  1  0  0  0  0
 43 42  1  0  0  0  0
 45 42  1  0  0  0  0
M  END
