1,2
 OpenBabel05122313063D

 25 24  0  0  0  0  0  0  0  0999 V2000
   -1.5308    1.2103    0.4566 S   0  0  0  0  0  0  0  0  0  0  0  0
    1.1363    1.1181   -1.7220 S   0  0  0  0  0  0  0  0  0  0  0  0
   -1.4690    2.0542   -1.1727 C   0  0  0  0  0  0  0  0  0  0  0  0
   -0.6114    1.3542   -2.2190 C   0  0  0  0  0  0  0  0  0  0  0  0
    1.6992    2.8522   -1.6502 C   0  0  0  0  0  0  0  0  0  0  0  0
   -3.0661    0.1044    0.3368 C   0  0  0  0  0  0  0  0  0  0  0  0
   -3.2138   -0.5732   -1.0246 C   0  0  0  0  0  0  0  0  0  0  0  0
   -4.2599    1.0200    0.6375 C   0  0  0  0  0  0  0  0  0  0  0  0
   -2.8698   -0.9349    1.4454 C   0  0  0  0  0  0  0  0  0  0  0  0
   -1.0943    3.0758   -0.9601 H   0  0  0  0  0  0  0  0  0  0  0  0
   -2.5115    2.1716   -1.5326 H   0  0  0  0  0  0  0  0  0  0  0  0
   -0.9593    0.3200   -2.4112 H   0  0  0  0  0  0  0  0  0  0  0  0
   -0.6197    1.9151   -3.1775 H   0  0  0  0  0  0  0  0  0  0  0  0
    2.7585    2.8179   -1.3337 H   0  0  0  0  0  0  0  0  0  0  0  0
    1.1298    3.4486   -0.9128 H   0  0  0  0  0  0  0  0  0  0  0  0
    1.6361    3.3066   -2.6579 H   0  0  0  0  0  0  0  0  0  0  0  0
   -2.3283   -1.1973   -1.2602 H   0  0  0  0  0  0  0  0  0  0  0  0
   -3.3900    0.1548   -1.8417 H   0  0  0  0  0  0  0  0  0  0  0  0
   -4.1026   -1.2379   -0.9898 H   0  0  0  0  0  0  0  0  0  0  0  0
   -4.1626    1.5021    1.6299 H   0  0  0  0  0  0  0  0  0  0  0  0
   -5.1938    0.4190    0.6306 H   0  0  0  0  0  0  0  0  0  0  0  0
   -4.3741    1.8166   -0.1262 H   0  0  0  0  0  0  0  0  0  0  0  0
   -2.0215   -1.6071    1.2085 H   0  0  0  0  0  0  0  0  0  0  0  0
   -3.7911   -1.5474    1.5296 H   0  0  0  0  0  0  0  0  0  0  0  0
   -2.6892   -0.4562    2.4290 H   0  0  0  0  0  0  0  0  0  0  0  0
  2  5  1  0  0  0  0
  3 10  1  0  0  0  0
  3  1  1  0  0  0  0
  4  2  1  0  0  0  0
  4  3  1  0  0  0  0
  5 14  1  0  0  0  0
  5 15  1  0  0  0  0
  6  1  1  0  0  0  0
  6  8  1  0  0  0  0
  6  9  1  0  0  0  0
  7 19  1  0  0  0  0
  7  6  1  0  0  0  0
  8 20  1  0  0  0  0
  9 24  1  0  0  0  0
  9 25  1  0  0  0  0
 11  3  1  0  0  0  0
 12  4  1  0  0  0  0
 13  4  1  0  0  0  0
 16  5  1  0  0  0  0
 17  7  1  0  0  0  0
 18  7  1  0  0  0  0
 21  8  1  0  0  0  0
 22  8  1  0  0  0  0
 23  9  1  0  0  0  0
M  END
