1,3
 OpenBabel05122313063D

  9  8  0  0  0  0  0  0  0  0999 V2000
   -1.6116    1.6101    1.7752 S   0  0  0  0  0  1  0  0  0  0  0  0
    0.3569    3.1950    3.6102 S   0  0  0  0  0  0  0  0  0  0  0  0
    1.8613    1.1223    1.8256 S   0  0  0  0  0  1  0  0  0  0  0  0
   -0.8106    1.8069    3.4119 C   0  0  0  0  0  0  0  0  0  0  0  0
   -1.6085    1.9913    4.1586 H   0  0  0  0  0  0  0  0  0  0  0  0
   -0.2800    0.8675    3.6634 H   0  0  0  0  0  0  0  0  0  0  0  0
    1.4412    2.8730    2.1660 C   0  0  0  0  0  0  0  0  0  0  0  0
    2.3847    3.4128    2.3834 H   0  0  0  0  0  0  0  0  0  0  0  0
    0.9769    3.3180    1.2635 H   0  0  0  0  0  0  0  0  0  0  0  0
  1  4  1  0  0  0  0
  3  7  1  0  0  0  0
  4  2  1  0  0  0  0
  4  6  1  0  0  0  0
  4  5  1  0  0  0  0
  7  8  1  0  0  0  0
  7  2  1  0  0  0  0
  9  7  1  0  0  0  0
M  END
