1,2
 OpenBabel05122313063D

 32 33  0  0  1  0  0  0  0  0999 V2000
   -1.4442    1.5449   -0.5496 S   0  0  0  0  0  1  0  0  0  0  0  0
   -1.3821   -1.6731   -0.2385 S   0  0  0  0  0  1  0  0  0  0  0  0
   -3.8208    2.3672    0.0334 N   0  0  0  0  0  0  0  0  0  0  0  0
   -3.7854   -2.4355    0.3546 N   0  0  0  0  0  0  0  0  0  0  0  0
   -3.0707    1.2086   -0.0526 C   0  0  0  0  0  0  0  0  0  0  0  0
   -3.6396   -0.0388    0.2459 C   0  0  0  0  0  0  0  0  0  0  0  0
   -3.0259   -1.2985    0.1370 C   0  0  1  0  0  3  0  0  0  0  0  0
   -5.2081    2.5754    0.0575 C   0  0  0  0  0  0  0  0  0  0  0  0
   -5.6868    3.7673    0.6512 C   0  0  0  0  0  0  0  0  0  0  0  0
   -7.0575    4.0462    0.6822 C   0  0  0  0  0  0  0  0  0  0  0  0
   -7.9818    3.1410    0.1347 C   0  0  0  0  0  0  0  0  0  0  0  0
   -7.5097    1.9630   -0.4647 C   0  0  0  0  0  0  0  0  0  0  0  0
   -6.1387    1.6810   -0.5177 C   0  0  0  0  0  0  0  0  0  0  0  0
   -5.1643   -2.6152    0.1456 C   0  0  0  0  0  0  0  0  0  0  0  0
   -5.8525   -1.9433   -0.8897 C   0  0  0  0  0  0  0  0  0  0  0  0
   -7.2233   -2.1584   -1.0773 C   0  0  0  0  0  0  0  0  0  0  0  0
   -7.9257   -3.0589   -0.2591 C   0  0  0  0  0  0  0  0  0  0  0  0
   -7.2365   -3.7521    0.7491 C   0  0  0  0  0  0  0  0  0  0  0  0
   -5.8691   -3.5307    0.9576 C   0  0  0  0  0  0  0  0  0  0  0  0
   -3.2475    3.2141    0.0849 H   0  0  0  0  0  0  0  0  0  0  0  0
   -4.9678    4.4713    1.0989 H   0  0  0  0  0  0  0  0  0  0  0  0
   -7.4073    4.9789    1.1503 H   0  0  0  0  0  0  0  0  0  0  0  0
   -9.0599    3.3558    0.1703 H   0  0  0  0  0  0  0  0  0  0  0  0
   -8.2168    1.2469   -0.9110 H   0  0  0  0  0  0  0  0  0  0  0  0
   -5.7885    0.7734   -1.0222 H   0  0  0  0  0  0  0  0  0  0  0  0
   -4.6629   -0.0361    0.6481 H   0  0  0  0  0  0  0  0  0  0  0  0
   -3.2453   -3.2679    0.6052 H   0  0  0  0  0  0  0  0  0  0  0  0
   -5.2916   -1.2779   -1.5612 H   0  0  0  0  0  0  0  0  0  0  0  0
   -7.7444   -1.6296   -1.8904 H   0  0  0  0  0  0  0  0  0  0  0  0
   -9.0018   -3.2265   -0.4126 H   0  0  0  0  0  0  0  0  0  0  0  0
   -7.7719   -4.4669    1.3924 H   0  0  0  0  0  0  0  0  0  0  0  0
   -5.3349   -4.0578    1.7631 H   0  0  0  0  0  0  0  0  0  0  0  0
  1  5  1  0  0  0  0
  3  8  1  0  0  0  0
  3 20  1  0  0  0  0
  4 27  1  0  0  0  0
  5  3  1  0  0  0  0
  5  6  2  0  0  0  0
  6 26  1  0  0  0  0
  7  2  1  1  0  0  0
  7  6  1  0  0  0  0
  7  4  1  0  0  0  0
  8  9  1  0  0  0  0
  9 10  2  0  0  0  0
  9 21  1  0  0  0  0
 10 22  1  0  0  0  0
 11 23  1  0  0  0  0
 11 10  1  0  0  0  0
 12 11  2  0  0  0  0
 13 12  1  0  0  0  0
 13  8  2  0  0  0  0
 14  4  1  0  0  0  0
 14 19  1  0  0  0  0
 15 14  2  0  0  0  0
 16 15  1  0  0  0  0
 16 17  2  0  0  0  0
 17 18  1  0  0  0  0
 18 19  2  0  0  0  0
 18 31  1  0  0  0  0
 19 32  1  0  0  0  0
 24 12  1  0  0  0  0
 25 13  1  0  0  0  0
 28 15  1  0  0  0  0
 29 16  1  0  0  0  0
 30 17  1  0  0  0  0
M  END
