1,2
 OpenBabel05122313063D

 17 17  0  0  0  0  0  0  0  0999 V2000
   -1.4082    1.4062   -0.0003 S   0  0  0  0  0  1  0  0  0  0  0  0
   -1.6101   -1.4416    0.0006 S   0  0  0  0  0  1  0  0  0  0  0  0
   -3.8332    0.0833    0.0000 N   0  0  0  0  0  0  0  0  0  0  0  0
   -4.4946   -1.1169    0.0004 N   0  0  0  0  0  0  0  0  0  0  0  0
   -2.4517    0.0460    0.0001 C   0  0  0  0  0  3  0  0  0  0  0  0
   -4.3061    2.6089   -0.0010 C   0  0  0  0  0  0  0  0  0  0  0  0
   -5.2127    3.2424   -0.0011 H   0  0  0  0  0  0  0  0  0  0  0  0
   -3.6944    2.8644   -0.8903 H   0  0  0  0  0  0  0  0  0  0  0  0
   -3.6942    2.8648    0.8879 H   0  0  0  0  0  0  0  0  0  0  0  0
   -4.7146    1.1765   -0.0007 C   0  0  0  0  0  0  0  0  0  0  0  0
   -5.9769    0.6149   -0.0008 C   0  0  0  0  0  0  0  0  0  0  0  0
   -6.9250    1.1640   -0.0012 H   0  0  0  0  0  0  0  0  0  0  0  0
   -5.7869   -0.8093   -0.0002 C   0  0  0  0  0  0  0  0  0  0  0  0
   -6.8299   -1.8785    0.0000 C   0  0  0  0  0  0  0  0  0  0  0  0
   -6.3499   -2.8742    0.0001 H   0  0  0  0  0  0  0  0  0  0  0  0
   -7.4840   -1.7977   -0.8924 H   0  0  0  0  0  0  0  0  0  0  0  0
   -7.4839   -1.7976    0.8926 H   0  0  0  0  0  0  0  0  0  0  0  0
  1  5  1  0  0  0  0
  3  5  1  0  0  0  0
  3  4  1  0  0  0  0
  5  2  1  0  0  0  0
  6 10  1  0  0  0  0
  6  9  1  0  0  0  0
  7  6  1  0  0  0  0
  8  6  1  0  0  0  0
 10  3  1  0  0  0  0
 11 10  2  0  0  0  0
 11 13  1  0  0  0  0
 12 11  1  0  0  0  0
 13 14  1  0  0  0  0
 13  4  2  0  0  0  0
 14 15  1  0  0  0  0
 14 17  1  0  0  0  0
 16 14  1  0  0  0  0
M  END
