1,2
 OpenBabel05122313063D

 30 31  0  0  0  0  0  0  0  0999 V2000
    1.2700   -1.1201    1.0806 S   0  0  0  0  0  0  0  0  0  0  0  0
   -1.2685   -1.1416   -1.0582 S   0  0  0  0  0  0  0  0  0  0  0  0
    2.7313   -1.4603    0.0736 C   0  0  0  0  0  0  0  0  0  0  0  0
    2.9323   -0.7961   -1.1459 C   0  0  0  0  0  0  0  0  0  0  0  0
    2.2031   -0.0602   -1.5192 H   0  0  0  0  0  0  0  0  0  0  0  0
    4.1031   -1.0756   -1.8627 C   0  0  0  0  0  0  0  0  0  0  0  0
    4.3104   -0.4531   -3.0318 F   0  0  0  0  0  0  0  0  0  0  0  0
    5.0584   -1.9872   -1.3947 C   0  0  0  0  0  0  0  0  0  0  0  0
    5.9630   -2.1711   -1.9914 H   0  0  0  0  0  0  0  0  0  0  0  0
    4.8383   -2.6296   -0.1670 C   0  0  0  0  0  0  0  0  0  0  0  0
    5.5891   -3.3350    0.2193 H   0  0  0  0  0  0  0  0  0  0  0  0
    3.6815   -2.3653    0.5811 C   0  0  0  0  0  0  0  0  0  0  0  0
    3.5249   -2.8440    1.5591 H   0  0  0  0  0  0  0  0  0  0  0  0
   -2.7308   -1.4627   -0.0464 C   0  0  0  0  0  0  0  0  0  0  0  0
   -2.9349   -0.7720    1.1577 C   0  0  0  0  0  0  0  0  0  0  0  0
   -2.2075   -0.0268    1.5157 H   0  0  0  0  0  0  0  0  0  0  0  0
   -4.1065   -1.0376    1.8787 C   0  0  0  0  0  0  0  0  0  0  0  0
   -4.3167   -0.3898    3.0334 F   0  0  0  0  0  0  0  0  0  0  0  0
   -5.0594   -1.9611    1.4296 C   0  0  0  0  0  0  0  0  0  0  0  0
   -5.9645   -2.1334    2.0288 H   0  0  0  0  0  0  0  0  0  0  0  0
   -4.8362   -2.6301    0.2167 C   0  0  0  0  0  0  0  0  0  0  0  0
   -5.5851   -3.3452   -0.1550 H   0  0  0  0  0  0  0  0  0  0  0  0
   -3.6787   -2.3803   -0.5353 C   0  0  0  0  0  0  0  0  0  0  0  0
   -3.5198   -2.8802   -1.5022 H   0  0  0  0  0  0  0  0  0  0  0  0
    0.2806   -2.6423    0.7277 C   0  0  0  0  0  0  0  0  0  0  0  0
    0.9421   -3.5110    0.9198 H   0  0  0  0  0  0  0  0  0  0  0  0
   -0.5240   -2.6345    1.4916 H   0  0  0  0  0  0  0  0  0  0  0  0
   -0.2789   -2.6563   -0.6750 C   0  0  0  0  0  0  0  0  0  0  0  0
   -0.9401   -3.5288   -0.8499 H   0  0  0  0  0  0  0  0  0  0  0  0
    0.5258   -2.6635   -1.4388 H   0  0  0  0  0  0  0  0  0  0  0  0
  2 28  1  0  0  0  0
  2 14  1  0  0  0  0
  3 12  1  0  0  0  0
  3  1  1  0  0  0  0
  4  3  2  0  0  0  0
  5  4  1  0  0  0  0
  6  8  2  0  0  0  0
  6  4  1  0  0  0  0
  7  6  1  0  0  0  0
  8 10  1  0  0  0  0
  9  8  1  0  0  0  0
 10 11  1  0  0  0  0
 10 12  2  0  0  0  0
 12 13  1  0  0  0  0
 14 15  1  0  0  0  0
 15 16  1  0  0  0  0
 15 17  2  0  0  0  0
 17 18  1  0  0  0  0
 19 17  1  0  0  0  0
 19 20  1  0  0  0  0
 21 19  2  0  0  0  0
 22 21  1  0  0  0  0
 23 14  2  0  0  0  0
 23 21  1  0  0  0  0
 24 23  1  0  0  0  0
 25 26  1  0  0  0  0
 25  1  1  0  0  0  0
 25 27  1  0  0  0  0
 28 25  1  0  0  0  0
 29 28  1  0  0  0  0
 30 28  1  0  0  0  0
M  END
