25,26
 OpenBabel05122313063D

 26 25  0  0  0  0  0  0  0  0999 V2000
    0.9352   -0.0000   -0.0000 C   0  0  0  0  0  3  0  0  0  0  0  0
    3.0265    0.8431   -0.9351 C   0  0  0  0  0  0  0  0  0  0  0  0
    2.4238    0.9701   -1.8578 H   0  0  0  0  0  0  0  0  0  0  0  0
    3.9448    0.2849   -1.1994 H   0  0  0  0  0  0  0  0  0  0  0  0
    3.3647    2.2076   -0.3502 C   0  0  0  0  0  0  0  0  0  0  0  0
    3.8411    2.8307   -1.1488 H   0  0  0  0  0  0  0  0  0  0  0  0
    2.4246    2.7312   -0.0452 H   0  0  0  0  0  0  0  0  0  0  0  0
    4.5412    3.2348    1.4124 C   0  0  0  0  0  0  0  0  0  0  0  0
    5.0608    3.9581    0.7389 H   0  0  0  0  0  0  0  0  0  0  0  0
    5.2153    2.9888    2.2549 H   0  0  0  0  0  0  0  0  0  0  0  0
    3.6289    3.7356    1.8166 H   0  0  0  0  0  0  0  0  0  0  0  0
    3.0265   -0.8431    0.9352 C   0  0  0  0  0  0  0  0  0  0  0  0
    2.4238   -0.9702    1.8578 H   0  0  0  0  0  0  0  0  0  0  0  0
    3.9448   -0.2849    1.1994 H   0  0  0  0  0  0  0  0  0  0  0  0
    3.3646   -2.2077    0.3502 C   0  0  0  0  0  0  0  0  0  0  0  0
    3.8412   -2.8307    1.1487 H   0  0  0  0  0  0  0  0  0  0  0  0
    2.4245   -2.7313    0.0452 H   0  0  0  0  0  0  0  0  0  0  0  0
    4.5413   -3.2348   -1.4124 C   0  0  0  0  0  0  0  0  0  0  0  0
    5.0611   -3.9579   -0.7388 H   0  0  0  0  0  0  0  0  0  0  0  0
    5.2153   -2.9888   -2.2549 H   0  0  0  0  0  0  0  0  0  0  0  0
    3.6291   -3.7359   -1.8164 H   0  0  0  0  0  0  0  0  0  0  0  0
    2.2703   -0.0000   -0.0000 N   0  0  0  0  0  0  0  0  0  0  0  0
    4.2295    2.0291    0.7487 O   0  0  0  0  0  0  0  0  0  0  0  0
    4.2293   -2.0291   -0.7488 O   0  0  0  0  0  0  0  0  0  0  0  0
   -0.0274    0.9902   -1.0545 S   0  0  0  0  0  1  0  0  0  0  0  0
   -0.0274   -0.9901    1.0546 S   0  0  0  0  0  1  0  0  0  0  0  0
  1 22  1  0  0  0  0
  1 26  1  0  0  0  0
  2  5  1  0  0  0  0
  2 22  1  0  0  0  0
  3  2  1  0  0  0  0
  4  2  1  0  0  0  0
  5  7  1  0  0  0  0
  5 23  1  0  0  0  0
  6  5  1  0  0  0  0
  8 11  1  0  0  0  0
  8 10  1  0  0  0  0
  9  8  1  0  0  0  0
 12 14  1  0  0  0  0
 12 13  1  0  0  0  0
 15 12  1  0  0  0  0
 15 16  1  0  0  0  0
 17 15  1  0  0  0  0
 18 24  1  0  0  0  0
 18 19  1  0  0  0  0
 20 18  1  0  0  0  0
 21 18  1  0  0  0  0
 22 12  1  0  0  0  0
 23  8  1  0  0  0  0
 24 15  1  0  0  0  0
 25  1  1  0  0  0  0
M  END
