1,2
 OpenBabel05122313063D

 28 28  0  0  1  0  0  0  0  0999 V2000
   -0.0797    1.5156   -0.6633 S   0  0  0  0  0  0  0  0  0  0  0  0
   -0.0839   -1.6832   -0.0616 S   0  0  0  0  0  0  0  0  0  0  0  0
    2.8480   -1.5565    0.7396 S   0  0  0  0  0  0  0  0  0  0  0  0
    2.9728    1.4000   -0.6269 S   0  0  0  0  0  0  0  0  0  0  0  0
   -0.2706    2.5065    0.8068 C   0  0  0  0  0  0  0  0  0  0  0  0
    0.6517    3.4062    1.2385 C   0  0  0  0  0  0  0  0  0  0  0  0
    1.9562    3.7390    0.7130 C   0  0  0  0  0  0  0  0  0  0  0  0
    2.8455    3.0400   -0.0567 C   0  0  0  0  0  0  0  0  0  0  0  0
    1.4569    0.6018   -0.2638 C   0  0  2  0  0  3  0  0  0  0  0  0
    1.4263   -0.7170    0.1076 C   0  0  0  0  0  3  0  0  0  0  0  0
   -0.3333   -2.2844    1.6708 C   0  0  0  0  0  0  0  0  0  0  0  0
   -0.4347   -1.1734    2.6981 C   0  0  0  0  0  0  0  0  0  0  0  0
    2.9264   -3.0291   -0.3691 C   0  0  0  0  0  0  0  0  0  0  0  0
    3.1376   -2.6759   -1.8331 C   0  0  0  0  0  0  0  0  0  0  0  0
   -1.2690    2.3993    1.2570 H   0  0  0  0  0  0  0  0  0  0  0  0
    0.3230    4.0239    2.0927 H   0  0  0  0  0  0  0  0  0  0  0  0
    2.3095    4.7476    0.9866 H   0  0  0  0  0  0  0  0  0  0  0  0
    3.7708    3.5584   -0.3621 H   0  0  0  0  0  0  0  0  0  0  0  0
    0.4970   -2.9911    1.8695 H   0  0  0  0  0  0  0  0  0  0  0  0
   -1.2871   -2.8391    1.5537 H   0  0  0  0  0  0  0  0  0  0  0  0
   -1.2975   -0.5147    2.4729 H   0  0  0  0  0  0  0  0  0  0  0  0
    0.4870   -0.5584    2.7310 H   0  0  0  0  0  0  0  0  0  0  0  0
   -0.5872   -1.6159    3.7037 H   0  0  0  0  0  0  0  0  0  0  0  0
    2.0117   -3.6375   -0.2168 H   0  0  0  0  0  0  0  0  0  0  0  0
    3.7783   -3.6025    0.0511 H   0  0  0  0  0  0  0  0  0  0  0  0
    4.0550   -2.0712   -1.9746 H   0  0  0  0  0  0  0  0  0  0  0  0
    3.2295   -3.6005   -2.4393 H   0  0  0  0  0  0  0  0  0  0  0  0
    2.2783   -2.0995   -2.2319 H   0  0  0  0  0  0  0  0  0  0  0  0
  1  9  1  0  0  0  0
  1  5  1  0  0  0  0
  2 10  1  0  0  0  0
  2 11  1  0  0  0  0
  4  9  1  0  0  0  0
  4  8  1  0  0  0  0
  5  6  2  0  0  0  0
  5 15  1  0  0  0  0
  6 16  1  0  0  0  0
  7 17  1  0  0  0  0
  7  6  1  0  0  0  0
  8  7  2  0  0  0  0
  9 10  1  6  0  0  0
 10  3  1  0  0  0  0
 11 19  1  0  0  0  0
 11 12  1  0  0  0  0
 12 22  1  0  0  0  0
 12 23  1  0  0  0  0
 13 24  1  0  0  0  0
 13 25  1  0  0  0  0
 13  3  1  0  0  0  0
 14 13  1  0  0  0  0
 18  8  1  0  0  0  0
 20 11  1  0  0  0  0
 21 12  1  0  0  0  0
 26 14  1  0  0  0  0
 27 14  1  0  0  0  0
 28 14  1  0  0  0  0
M  END
