1,6
 OpenBabel05122313063D

 38 39  0  0  0  0  0  0  0  0999 V2000
    1.2632   -0.0283    1.3526 S   0  0  2  0  0  3  0  0  0  0  0  0
    1.5620    0.4931    2.7225 O   0  0  0  0  0  1  0  0  0  0  0  0
    0.3480   -1.6354    1.5992 C   0  0  0  0  0  0  0  0  0  0  0  0
    1.0592   -2.2989    2.1294 H   0  0  0  0  0  0  0  0  0  0  0  0
   -0.4653   -1.3366    2.2918 H   0  0  0  0  0  0  0  0  0  0  0  0
   -0.9574   -0.9150   -0.7869 S   0  0  2  0  0  3  0  0  0  0  0  0
   -0.8423   -1.4474   -2.1849 O   0  0  0  0  0  1  0  0  0  0  0  0
   -0.1506   -2.2111    0.3013 C   0  0  0  0  0  0  0  0  0  0  0  0
   -0.9056   -3.0091    0.4368 H   0  0  0  0  0  0  0  0  0  0  0  0
    0.6647   -2.5820   -0.3520 H   0  0  0  0  0  0  0  0  0  0  0  0
    2.8009   -0.6018    0.5934 C   0  0  0  0  0  0  0  0  0  0  0  0
    3.9011   -0.7937    1.4386 C   0  0  0  0  0  0  0  0  0  0  0  0
    3.8003   -0.5799    2.5134 H   0  0  0  0  0  0  0  0  0  0  0  0
    5.1082   -1.2310    0.8786 C   0  0  0  0  0  0  0  0  0  0  0  0
    5.9819   -1.3833    1.5313 H   0  0  0  0  0  0  0  0  0  0  0  0
    5.2294   -1.4673   -0.5077 C   0  0  0  0  0  0  0  0  0  0  0  0
    4.1010   -1.2501   -1.3285 C   0  0  0  0  0  0  0  0  0  0  0  0
    4.1786   -1.4158   -2.4142 H   0  0  0  0  0  0  0  0  0  0  0  0
    2.8859   -0.8056   -0.7926 C   0  0  0  0  0  0  0  0  0  0  0  0
    2.0211   -0.6058   -1.4460 H   0  0  0  0  0  0  0  0  0  0  0  0
    6.5420   -1.8976   -1.1080 C   0  0  0  0  0  0  0  0  0  0  0  0
    6.3941   -2.6004   -1.9515 H   0  0  0  0  0  0  0  0  0  0  0  0
    7.1972   -2.3817   -0.3584 H   0  0  0  0  0  0  0  0  0  0  0  0
    7.0925   -1.0202   -1.5104 H   0  0  0  0  0  0  0  0  0  0  0  0
   -2.6791   -1.0073   -0.2571 C   0  0  0  0  0  0  0  0  0  0  0  0
   -3.5179   -1.9033   -0.9316 C   0  0  0  0  0  0  0  0  0  0  0  0
   -3.1200   -2.4939   -1.7705 H   0  0  0  0  0  0  0  0  0  0  0  0
   -4.8552   -1.9990   -0.5271 C   0  0  0  0  0  0  0  0  0  0  0  0
   -5.5283   -2.6974   -1.0486 H   0  0  0  0  0  0  0  0  0  0  0  0
   -5.3602   -1.2065    0.5267 C   0  0  0  0  0  0  0  0  0  0  0  0
   -4.4850   -0.3042    1.1698 C   0  0  0  0  0  0  0  0  0  0  0  0
   -4.8656    0.3358    1.9809 H   0  0  0  0  0  0  0  0  0  0  0  0
   -3.1455   -0.1873    0.7792 C   0  0  0  0  0  0  0  0  0  0  0  0
   -2.4735    0.5491    1.2487 H   0  0  0  0  0  0  0  0  0  0  0  0
   -6.8103   -1.2842    0.9264 C   0  0  0  0  0  0  0  0  0  0  0  0
   -7.2645   -2.2519    0.6383 H   0  0  0  0  0  0  0  0  0  0  0  0
   -7.3955   -0.4830    0.4260 H   0  0  0  0  0  0  0  0  0  0  0  0
   -6.9410   -1.1459    2.0177 H   0  0  0  0  0  0  0  0  0  0  0  0
  1  3  1  0  0  0  0
  1  2  1  1  0  0  0
  3  4  1  0  0  0  0
  3  5  1  0  0  0  0
  6  7  1  6  0  0  0
  6 25  1  0  0  0  0
  6  8  1  0  0  0  0
  8  9  1  0  0  0  0
  8  3  1  0  0  0  0
 10  8  1  0  0  0  0
 11  1  1  0  0  0  0
 11 12  1  0  0  0  0
 12 13  1  0  0  0  0
 14 12  2  0  0  0  0
 14 15  1  0  0  0  0
 16 14  1  0  0  0  0
 17 19  1  0  0  0  0
 17 16  2  0  0  0  0
 18 17  1  0  0  0  0
 19 11  2  0  0  0  0
 20 19  1  0  0  0  0
 21 16  1  0  0  0  0
 21 23  1  0  0  0  0
 22 21  1  0  0  0  0
 24 21  1  0  0  0  0
 25 33  1  0  0  0  0
 26 28  1  0  0  0  0
 26 25  2  0  0  0  0
 27 26  1  0  0  0  0
 28 30  2  0  0  0  0
 29 28  1  0  0  0  0
 30 35  1  0  0  0  0
 30 31  1  0  0  0  0
 31 32  1  0  0  0  0
 33 31  2  0  0  0  0
 33 34  1  0  0  0  0
 35 38  1  0  0  0  0
 36 35  1  0  0  0  0
 37 35  1  0  0  0  0
M  END
