1,2
 OpenBabel05122313063D

 38 40  0  0  0  0  0  0  0  0999 V2000
    1.8188   -1.1122   -1.4227 S   0  0  0  0  0  1  0  0  0  0  0  0
    2.2619   -0.3622    1.4437 S   0  0  0  0  0  1  0  0  0  0  0  0
    2.9185   -0.8153   -0.1047 C   0  0  0  0  0  3  0  0  0  0  0  0
    4.8561   -1.2133   -1.5901 C   0  0  0  0  0  0  0  0  0  0  0  0
    5.6428   -0.4500   -1.7652 H   0  0  0  0  0  0  0  0  0  0  0  0
    4.0657   -1.0742   -2.3538 H   0  0  0  0  0  0  0  0  0  0  0  0
    5.4481   -2.6043   -1.6668 C   0  0  0  0  0  0  0  0  0  0  0  0
    4.6172   -3.7345   -1.5191 C   0  0  0  0  0  0  0  0  0  0  0  0
    3.5354   -3.5892   -1.3681 H   0  0  0  0  0  0  0  0  0  0  0  0
    5.1620   -5.0245   -1.5728 C   0  0  0  0  0  0  0  0  0  0  0  0
    4.5046   -5.9000   -1.4596 H   0  0  0  0  0  0  0  0  0  0  0  0
    6.5416   -5.2025   -1.7754 C   0  0  0  0  0  0  0  0  0  0  0  0
    6.9670   -6.2168   -1.8177 H   0  0  0  0  0  0  0  0  0  0  0  0
    7.3744   -4.0834   -1.9231 C   0  0  0  0  0  0  0  0  0  0  0  0
    8.4558   -4.2157   -2.0800 H   0  0  0  0  0  0  0  0  0  0  0  0
    6.8288   -2.7905   -1.8652 C   0  0  0  0  0  0  0  0  0  0  0  0
    7.4814   -1.9094   -1.9755 H   0  0  0  0  0  0  0  0  0  0  0  0
    5.2143   -0.7779    0.8221 C   0  0  0  0  0  0  0  0  0  0  0  0
    5.8796   -1.6663    0.8132 H   0  0  0  0  0  0  0  0  0  0  0  0
    4.6345   -0.7938    1.7655 H   0  0  0  0  0  0  0  0  0  0  0  0
    6.0326    0.4876    0.6991 C   0  0  0  0  0  0  0  0  0  0  0  0
    7.4258    0.4355    0.4977 C   0  0  0  0  0  0  0  0  0  0  0  0
    7.9334   -0.5403    0.4476 H   0  0  0  0  0  0  0  0  0  0  0  0
    8.1686    1.6153    0.3542 C   0  0  0  0  0  0  0  0  0  0  0  0
    9.2547    1.5966    0.1825 H   0  0  0  0  0  0  0  0  0  0  0  0
    7.5325    2.8645    0.4093 C   0  0  0  0  0  0  0  0  0  0  0  0
    8.2869    3.9960    0.2407 O   0  0  0  0  0  0  0  0  0  0  0  0
    7.5169    5.1672   -0.0200 C   0  0  0  0  0  0  0  0  0  0  0  0
    7.1569    5.1596   -1.0749 H   0  0  0  0  0  0  0  0  0  0  0  0
    8.1945    6.0328    0.1164 H   0  0  0  0  0  0  0  0  0  0  0  0
    6.3292    5.2410    0.9262 C   0  0  0  0  0  0  0  0  0  0  0  0
    6.6899    5.2665    1.9808 H   0  0  0  0  0  0  0  0  0  0  0  0
    5.7218    6.1480    0.7384 H   0  0  0  0  0  0  0  0  0  0  0  0
    5.4696    4.1217    0.7314 O   0  0  0  0  0  0  0  0  0  0  0  0
    6.1307    2.9254    0.6345 C   0  0  0  0  0  0  0  0  0  0  0  0
    5.3950    1.7404    0.7684 C   0  0  0  0  0  0  0  0  0  0  0  0
    4.3105    1.8125    0.9445 H   0  0  0  0  0  0  0  0  0  0  0  0
    4.2528   -0.9339   -0.2804 N   0  0  0  0  0  0  0  0  0  0  0  0
  1  3  1  0  0  0  0
  3  2  1  0  0  0  0
  4 38  1  0  0  0  0
  5  4  1  0  0  0  0
  6  4  1  0  0  0  0
  7  4  1  0  0  0  0
  7  8  1  0  0  0  0
  8  9  1  0  0  0  0
 10  8  2  0  0  0  0
 10 11  1  0  0  0  0
 12 10  1  0  0  0  0
 13 12  1  0  0  0  0
 14 16  1  0  0  0  0
 14 12  2  0  0  0  0
 15 14  1  0  0  0  0
 16  7  2  0  0  0  0
 17 16  1  0  0  0  0
 18 20  1  0  0  0  0
 19 18  1  0  0  0  0
 21 36  1  0  0  0  0
 21 18  1  0  0  0  0
 22 21  2  0  0  0  0
 23 22  1  0  0  0  0
 24 26  2  0  0  0  0
 24 22  1  0  0  0  0
 25 24  1  0  0  0  0
 26 35  1  0  0  0  0
 27 26  1  0  0  0  0
 28 30  1  0  0  0  0
 28 27  1  0  0  0  0
 28 31  1  0  0  0  0
 29 28  1  0  0  0  0
 31 32  1  0  0  0  0
 33 31  1  0  0  0  0
 34 31  1  0  0  0  0
 35 34  1  0  0  0  0
 35 36  2  0  0  0  0
 36 37  1  0  0  0  0
 38  3  1  0  0  0  0
 38 18  1  0  0  0  0
M  END
