1,3
 OpenBabel05122313063D

 38 41  0  0  1  0  0  0  0  0999 V2000
    4.7035   -0.6308   -0.1736 S   0  0  0  0  0  1  0  0  0  0  0  0
    2.5225    0.2653    2.1822 S   0  0  0  0  0  0  0  0  0  0  0  0
    2.2004   -2.6321    0.6718 S   0  0  0  0  0  1  0  0  0  0  0  0
    3.9900    0.9812   -2.1191 O   0  0  0  0  0  0  0  0  0  0  0  0
    2.8849    2.3900    0.7297 O   0  0  0  0  0  0  0  0  0  0  0  0
   -0.1294   -2.1333   -0.3813 O   0  0  0  0  0  0  0  0  0  0  0  0
    4.9566    0.3683   -1.5069 C   0  0  2  0  0  3  0  0  0  0  0  0
    3.0684    1.8403    1.9014 C   0  0  0  0  0  0  0  0  0  0  0  0
    0.6017   -2.9900    0.2544 C   0  0  2  0  0  3  0  0  0  0  0  0
    6.3232    0.6109   -2.0737 C   0  0  0  0  0  0  0  0  0  0  0  0
    7.1027    0.0901   -1.4925 H   0  0  0  0  0  0  0  0  0  0  0  0
    6.5278    1.7012   -2.0922 H   0  0  0  0  0  0  0  0  0  0  0  0
    6.3464    0.2620   -3.1270 H   0  0  0  0  0  0  0  0  0  0  0  0
    3.8029    2.6592    2.9108 C   0  0  0  0  0  0  0  0  0  0  0  0
    3.8017    2.1718    3.9007 H   0  0  0  0  0  0  0  0  0  0  0  0
    3.3561    3.6721    2.9767 H   0  0  0  0  0  0  0  0  0  0  0  0
    4.8540    2.7876    2.5739 H   0  0  0  0  0  0  0  0  0  0  0  0
   -0.0575   -4.2832    0.6187 C   0  0  0  0  0  0  0  0  0  0  0  0
    0.6531   -4.9796    1.0957 H   0  0  0  0  0  0  0  0  0  0  0  0
   -0.4950   -4.7528   -0.2861 H   0  0  0  0  0  0  0  0  0  0  0  0
   -0.8934   -4.0720    1.3196 H   0  0  0  0  0  0  0  0  0  0  0  0
    1.3203    0.8710   -2.8899 B   0  0  2  0  0  0  0  0  0  0  0  0
    1.6498   -0.6896   -2.0448 B   0  0  0  0  0  2  0  0  0  0  0  0
    2.5867    0.7949   -1.6761 B   0  0  2  0  0  0  0  0  0  0  0  0
    1.5299    2.2244   -1.7408 B   0  0  2  0  0  0  0  0  0  0  0  0
   -0.1202    1.6053   -2.1092 B   0  0  0  0  0  0  0  0  0  0  0  0
   -0.0207   -0.1589   -2.3495 B   0  0  2  0  0  0  0  0  0  0  0  0
    2.0451    1.5856   -0.1859 B   0  0  0  0  0  0  0  0  0  0  0  0
    0.3098    2.0581   -0.4229 B   0  0  0  0  0  0  0  0  0  0  0  0
   -0.6090    0.5405   -0.8257 B   0  0  1  0  0  0  0  0  0  0  0  0
    0.4469   -0.8128   -0.7654 B   0  0  1  0  0  0  0  0  0  0  0  0
    1.5999    1.0263   -4.0582 H   0  0  0  0  0  0  0  0  0  0  0  0
    2.1525   -1.6265   -2.6341 H   0  0  0  0  0  0  0  0  0  0  0  0
    1.9477    3.3107   -2.0781 H   0  0  0  0  0  0  0  0  0  0  0  0
   -0.8878    2.3403   -2.6961 H   0  0  0  0  0  0  0  0  0  0  0  0
   -0.7507   -0.7715   -3.1002 H   0  0  0  0  0  0  0  0  0  0  0  0
   -0.1653    3.0305    0.1250 H   0  0  0  0  0  0  0  0  0  0  0  0
    0.8861    1.3337    0.4972 H   0  0  0  0  0  0  0  0  0  0  0  0
  4  7  1  0  0  0  0
  5  8  1  0  0  0  0
  6  9  1  0  0  0  0
  7  1  1  6  0  0  0
  8  2  2  0  0  0  0
  8 14  1  0  0  0  0
  9 18  1  0  0  0  0
  9  3  1  1  0  0  0
 10  7  1  0  0  0  0
 10 11  1  0  0  0  0
 12 10  1  0  0  0  0
 13 10  1  0  0  0  0
 14 16  1  0  0  0  0
 14 15  1  0  0  0  0
 17 14  1  0  0  0  0
 18 19  1  0  0  0  0
 18 21  1  0  0  0  0
 20 18  1  0  0  0  0
 22 32  1  6  0  0  0
 22 27  1  0  0  0  0
 22 25  1  0  0  0  0
 22 24  1  0  0  0  0
 24  4  1  6  0  0  0
 24 28  1  0  0  0  0
 25 34  1  6  0  0  0
 25 24  1  0  0  0  0
 25 28  1  0  0  0  0
 26 29  1  0  0  0  0
 27 36  1  6  0  0  0
 27 30  1  0  0  0  0
 27 31  1  0  0  0  0
 28  5  1  0  0  0  0
 29 37  1  0  0  0  0
 29 38  1  0  0  0  0
 30 26  1  1  0  0  0
 30 31  1  0  0  0  0
 30 29  1  0  0  0  0
 31 23  1  1  0  0  0
 31  6  1  0  0  0  0
 33 23  1  0  0  0  0
 35 26  1  0  0  0  0
M  END
