1,2
 OpenBabel05122313063D

 40 40  0  0  0  0  0  0  0  0999 V2000
    1.7828    1.0100    1.9787 S   0  0  0  0  0  0  0  0  0  0  0  0
    1.6516   -2.3644    0.0956 S   0  0  0  0  0  0  0  0  0  0  0  0
   -5.6253   -1.2685   -0.3712 S   0  0  0  0  0  0  0  0  0  0  0  0
   -3.9639    2.6227   -1.0528 S   0  0  0  0  0  0  0  0  0  0  0  0
   -0.8036   -0.1379    1.7406 C   0  0  0  0  0  0  0  0  0  0  0  0
   -0.8550   -1.3537    1.0115 C   0  0  0  0  0  0  0  0  0  0  0  0
   -1.9104   -1.5396    0.0966 C   0  0  0  0  0  0  0  0  0  0  0  0
   -1.9660   -2.4891   -0.4601 H   0  0  0  0  0  0  0  0  0  0  0  0
   -2.9092   -0.5780   -0.1324 C   0  0  0  0  0  0  0  0  0  0  0  0
   -2.8836    0.6197    0.6315 C   0  0  0  0  0  0  0  0  0  0  0  0
   -1.8289    0.8079    1.5401 C   0  0  0  0  0  0  0  0  0  0  0  0
   -1.8215    1.7294    2.1448 H   0  0  0  0  0  0  0  0  0  0  0  0
    0.2938    0.1722    2.7142 C   0  0  0  0  0  0  0  0  0  0  0  0
    0.7189   -0.7303    3.1929 H   0  0  0  0  0  0  0  0  0  0  0  0
   -0.0582    0.8435    3.5230 H   0  0  0  0  0  0  0  0  0  0  0  0
    1.0436    2.6247    1.5697 C   0  0  0  0  0  0  0  0  0  0  0  0
    0.2321    2.5084    0.8264 H   0  0  0  0  0  0  0  0  0  0  0  0
    1.8555    3.2336    1.1318 H   0  0  0  0  0  0  0  0  0  0  0  0
    0.6686    3.1083    2.4932 H   0  0  0  0  0  0  0  0  0  0  0  0
    0.1564   -2.4464    1.1977 C   0  0  0  0  0  0  0  0  0  0  0  0
   -0.2909   -3.4443    1.0164 H   0  0  0  0  0  0  0  0  0  0  0  0
    0.5889   -2.4601    2.2161 H   0  0  0  0  0  0  0  0  0  0  0  0
    0.8777   -2.8328   -1.4871 C   0  0  0  0  0  0  0  0  0  0  0  0
    0.4377   -3.8457   -1.4000 H   0  0  0  0  0  0  0  0  0  0  0  0
    1.6890   -2.8408   -2.2377 H   0  0  0  0  0  0  0  0  0  0  0  0
    0.1125   -2.0917   -1.7868 H   0  0  0  0  0  0  0  0  0  0  0  0
   -3.9976   -0.8654   -1.1313 C   0  0  0  0  0  0  0  0  0  0  0  0
   -3.7009   -1.6939   -1.8067 H   0  0  0  0  0  0  0  0  0  0  0  0
   -4.1964    0.0334   -1.7518 H   0  0  0  0  0  0  0  0  0  0  0  0
   -5.1733   -2.7358    0.6010 C   0  0  0  0  0  0  0  0  0  0  0  0
   -4.8345   -3.5661   -0.0525 H   0  0  0  0  0  0  0  0  0  0  0  0
   -6.0895   -3.0552    1.1339 H   0  0  0  0  0  0  0  0  0  0  0  0
   -4.3868   -2.5053    1.3476 H   0  0  0  0  0  0  0  0  0  0  0  0
   -3.9594    1.6689    0.5181 C   0  0  0  0  0  0  0  0  0  0  0  0
   -3.8944    2.3802    1.3673 H   0  0  0  0  0  0  0  0  0  0  0  0
   -4.9604    1.1889    0.5474 H   0  0  0  0  0  0  0  0  0  0  0  0
   -2.3134    3.3802   -0.9789 C   0  0  0  0  0  0  0  0  0  0  0  0
   -2.1968    4.0001   -0.0660 H   0  0  0  0  0  0  0  0  0  0  0  0
   -2.2314    4.0381   -1.8654 H   0  0  0  0  0  0  0  0  0  0  0  0
   -1.5157    2.6150   -1.0337 H   0  0  0  0  0  0  0  0  0  0  0  0
  1 13  1  0  0  0  0
  2 20  1  0  0  0  0
  3 30  1  0  0  0  0
  4 37  1  0  0  0  0
  4 34  1  0  0  0  0
  5 13  1  0  0  0  0
  6 20  1  0  0  0  0
  6  5  2  0  0  0  0
  7  6  1  0  0  0  0
  8  7  1  0  0  0  0
  9  7  2  0  0  0  0
  9 10  1  0  0  0  0
 10 11  2  0  0  0  0
 11  5  1  0  0  0  0
 11 12  1  0  0  0  0
 13 14  1  0  0  0  0
 13 15  1  0  0  0  0
 16  1  1  0  0  0  0
 16 19  1  0  0  0  0
 17 16  1  0  0  0  0
 18 16  1  0  0  0  0
 20 22  1  0  0  0  0
 21 20  1  0  0  0  0
 23 24  1  0  0  0  0
 23  2  1  0  0  0  0
 25 23  1  0  0  0  0
 26 23  1  0  0  0  0
 27  3  1  0  0  0  0
 27  9  1  0  0  0  0
 28 27  1  0  0  0  0
 29 27  1  0  0  0  0
 30 32  1  0  0  0  0
 30 33  1  0  0  0  0
 31 30  1  0  0  0  0
 34 36  1  0  0  0  0
 34 10  1  0  0  0  0
 34 35  1  0  0  0  0
 37 38  1  0  0  0  0
 39 37  1  0  0  0  0
 40 37  1  0  0  0  0
M  END
