1,2
 OpenBabel05122313063D

 16 15  0  0  0  0  0  0  0  0999 V2000
   -1.3719   -1.5337   -0.0096 S   0  0  0  0  0  1  0  0  0  0  0  0
   -1.0992    1.3300   -0.0610 S   0  0  0  0  0  1  0  0  0  0  0  0
   -5.8829   -0.4730    0.0492 O   0  0  0  0  0  0  0  0  0  0  0  0
   -3.0318    2.5167   -0.0454 O   0  0  0  0  0  0  0  0  0  0  0  0
   -2.2328   -0.0089   -0.0181 C   0  0  0  0  0  0  0  0  0  0  0  0
   -3.6195    0.2403    0.0007 C   0  0  0  0  0  0  0  0  0  0  0  0
   -4.6916   -0.7945    0.0355 C   0  0  0  0  0  0  0  0  0  0  0  0
   -4.3305   -2.2674    0.0549 C   0  0  0  0  0  0  0  0  0  0  0  0
   -5.2736   -2.8432    0.0821 H   0  0  0  0  0  0  0  0  0  0  0  0
   -3.7055   -2.5201    0.9358 H   0  0  0  0  0  0  0  0  0  0  0  0
   -3.7381   -2.5513   -0.8390 H   0  0  0  0  0  0  0  0  0  0  0  0
   -3.9588    1.6654   -0.0178 C   0  0  0  0  0  0  0  0  0  0  0  0
   -5.3691    2.1908   -0.0062 C   0  0  0  0  0  0  0  0  0  0  0  0
   -5.3268    3.2955   -0.0251 H   0  0  0  0  0  0  0  0  0  0  0  0
   -5.9152    1.8273    0.8853 H   0  0  0  0  0  0  0  0  0  0  0  0
   -5.9402    1.7985   -0.8693 H   0  0  0  0  0  0  0  0  0  0  0  0
  2  5  1  0  0  0  0
  4 12  2  0  0  0  0
  5  1  1  0  0  0  0
  5  6  2  0  0  0  0
  6  7  1  0  0  0  0
  7  3  2  0  0  0  0
  7  8  1  0  0  0  0
  8  9  1  0  0  0  0
  8 10  1  0  0  0  0
 11  8  1  0  0  0  0
 12 13  1  0  0  0  0
 12  6  1  0  0  0  0
 13 15  1  0  0  0  0
 14 13  1  0  0  0  0
 16 13  1  0  0  0  0
M  END
