1,2
 OpenBabel05122313063D

 12 12  0  0  0  0  0  0  0  0999 V2000
    1.9757    0.2973    0.7259 S   0  0  0  0  0  0  0  0  0  0  0  0
   -0.2806   -1.9369    1.1717 S   0  0  0  0  0  0  0  0  0  0  0  0
    2.4226   -1.3464    1.1132 C   0  0  0  0  0  0  0  0  0  0  0  0
    1.4353   -2.3282    1.3805 C   0  0  0  0  0  0  0  0  0  0  0  0
    1.8038   -3.6433    1.7256 C   0  0  0  0  0  0  0  0  0  0  0  0
    0.8657   -4.5687    1.9743 F   0  0  0  0  0  0  0  0  0  0  0  0
    3.1537   -4.0082    1.7781 C   0  0  0  0  0  0  0  0  0  0  0  0
    3.5143   -5.2603    2.0801 F   0  0  0  0  0  0  0  0  0  0  0  0
    4.1452   -3.0452    1.4882 C   0  0  0  0  0  0  0  0  0  0  0  0
    5.4309   -3.4048    1.5092 F   0  0  0  0  0  0  0  0  0  0  0  0
    3.7801   -1.7336    1.1658 C   0  0  0  0  0  0  0  0  0  0  0  0
    4.7447   -0.8504    0.8644 F   0  0  0  0  0  0  0  0  0  0  0  0
  1  3  1  0  0  0  0
  2  4  1  0  0  0  0
  3 11  2  0  0  0  0
  3  4  1  0  0  0  0
  4  5  2  0  0  0  0
  5  7  1  0  0  0  0
  5  6  1  0  0  0  0
  7  8  1  0  0  0  0
  9 10  1  0  0  0  0
  9  7  2  0  0  0  0
 11  9  1  0  0  0  0
 12 11  1  0  0  0  0
M  END
