1,4
 OpenBabel05122313063D

 20 19  0  0  0  0  0  0  0  0999 V2000
    1.3014    0.8469   -1.8099 S   0  0  0  0  0  1  0  0  0  0  0  0
    2.8830    0.9601   -0.6021 P   0  0  0  0  0  4  0  0  0  0  0  0
    2.8844   -0.9594    0.6019 P   0  0  0  0  0  4  0  0  0  0  0  0
    1.3022   -0.8488    1.8091 S   0  0  0  0  0  1  0  0  0  0  0  0
    4.4832    1.1443   -1.4696 C   0  0  0  0  0  0  0  0  0  0  0  0
    4.5914    0.3288   -2.2097 H   0  0  0  0  0  0  0  0  0  0  0  0
    5.3271    1.1298   -0.7513 H   0  0  0  0  0  0  0  0  0  0  0  0
    4.4779    2.1121   -2.0100 H   0  0  0  0  0  0  0  0  0  0  0  0
    2.8026    2.2527    0.6809 C   0  0  0  0  0  0  0  0  0  0  0  0
    1.9271    2.0340    1.3228 H   0  0  0  0  0  0  0  0  0  0  0  0
    2.6624    3.2292    0.1771 H   0  0  0  0  0  0  0  0  0  0  0  0
    3.7296    2.2678    1.2879 H   0  0  0  0  0  0  0  0  0  0  0  0
    4.4845   -1.1407    1.4700 C   0  0  0  0  0  0  0  0  0  0  0  0
    4.5916   -0.3244    2.2094 H   0  0  0  0  0  0  0  0  0  0  0  0
    5.3286   -1.1260    0.7520 H   0  0  0  0  0  0  0  0  0  0  0  0
    4.4802   -2.1080    2.0114 H   0  0  0  0  0  0  0  0  0  0  0  0
    2.8065   -2.2521   -0.6811 C   0  0  0  0  0  0  0  0  0  0  0  0
    1.9299   -2.0356   -1.3223 H   0  0  0  0  0  0  0  0  0  0  0  0
    2.6693   -3.2290   -0.1772 H   0  0  0  0  0  0  0  0  0  0  0  0
    3.7331   -2.2646   -1.2888 H   0  0  0  0  0  0  0  0  0  0  0  0
  1  2  1  0  0  0  0
  2  3  1  0  0  0  0
  2  9  1  0  0  0  0
  3 13  1  0  0  0  0
  3  4  1  0  0  0  0
  5  7  1  0  0  0  0
  5  2  1  0  0  0  0
  6  5  1  0  0  0  0
  8  5  1  0  0  0  0
  9 12  1  0  0  0  0
  9 10  1  0  0  0  0
 11  9  1  0  0  0  0
 13 16  1  0  0  0  0
 13 14  1  0  0  0  0
 15 13  1  0  0  0  0
 17 19  1  0  0  0  0
 17  3  1  0  0  0  0
 18 17  1  0  0  0  0
 20 17  1  0  0  0  0
M  END
