1,2
 OpenBabel05122313063D

 14 14  0  0  0  0  0  0  0  0999 V2000
    1.7911    1.3839    0.0694 S   0  0  0  0  0  1  0  0  0  0  0  0
    2.3705   -1.3830   -0.0612 S   0  0  0  0  0  1  0  0  0  0  0  0
    3.0287    0.1995    0.0203 C   0  0  0  0  0  3  0  0  0  0  0  0
    4.4586    0.4980    0.0444 C   0  0  0  0  0  0  0  0  0  0  0  0
    4.9149    1.8366    0.1253 C   0  0  0  0  0  0  0  0  0  0  0  0
    6.2839    2.1189    0.1480 C   0  0  0  0  0  0  0  0  0  0  0  0
    7.2222    1.0734    0.0906 C   0  0  0  0  0  0  0  0  0  0  0  0
    6.7814   -0.2590    0.0102 C   0  0  0  0  0  0  0  0  0  0  0  0
    5.4134   -0.5467   -0.0129 C   0  0  0  0  0  0  0  0  0  0  0  0
    4.1776    2.6528    0.1710 H   0  0  0  0  0  0  0  0  0  0  0  0
    6.6245    3.1632    0.2113 H   0  0  0  0  0  0  0  0  0  0  0  0
    8.2994    1.2978    0.1087 H   0  0  0  0  0  0  0  0  0  0  0  0
    7.5123   -1.0803   -0.0351 H   0  0  0  0  0  0  0  0  0  0  0  0
    5.0649   -1.5891   -0.0764 H   0  0  0  0  0  0  0  0  0  0  0  0
  2  3  1  0  0  0  0
  3  4  1  0  0  0  0
  3  1  1  0  0  0  0
  4  5  1  0  0  0  0
  5  6  2  0  0  0  0
  5 10  1  0  0  0  0
  6 11  1  0  0  0  0
  7 12  1  0  0  0  0
  7  6  1  0  0  0  0
  8  7  2  0  0  0  0
  9  8  1  0  0  0  0
  9  4  2  0  0  0  0
 13  8  1  0  0  0  0
 14  9  1  0  0  0  0
M  END
