1,2
 OpenBabel05122313063D

 14 14  0  0  0  0  0  0  0  0999 V2000
   -2.6187   -0.3027    1.9592 S   0  0  0  0  0  1  0  0  0  0  0  0
   -2.0615   -0.1922   -1.1938 S   0  0  0  0  0  1  0  0  0  0  0  0
   -6.3060   -0.7246    0.3513 O   0  0  0  0  0  0  0  0  0  0  0  0
   -3.9237   -0.3470    0.7881 C   0  0  0  0  0  0  0  0  0  0  0  0
   -5.3357   -0.4315    1.3380 C   0  0  0  0  0  0  0  0  0  0  0  0
   -5.4006   -1.2363    2.0997 H   0  0  0  0  0  0  0  0  0  0  0  0
   -5.5803    0.5299    1.8618 H   0  0  0  0  0  0  0  0  0  0  0  0
   -6.1433    0.0696   -0.8096 C   0  0  0  0  0  0  0  0  0  0  0  0
   -6.1409    1.1579   -0.5468 H   0  0  0  0  0  0  0  0  0  0  0  0
   -7.0259   -0.1238   -1.4519 H   0  0  0  0  0  0  0  0  0  0  0  0
   -4.8427   -0.2838   -1.5378 C   0  0  0  0  0  0  0  0  0  0  0  0
   -4.6498    0.4370   -2.3609 H   0  0  0  0  0  0  0  0  0  0  0  0
   -4.9333   -1.2877   -2.0094 H   0  0  0  0  0  0  0  0  0  0  0  0
   -3.6939   -0.2785   -0.5574 C   0  0  0  0  0  0  0  0  0  0  0  0
  2 14  1  0  0  0  0
  3  5  1  0  0  0  0
  4  5  1  0  0  0  0
  4  1  1  0  0  0  0
  5  7  1  0  0  0  0
  5  6  1  0  0  0  0
  8  9  1  0  0  0  0
  8  3  1  0  0  0  0
 10  8  1  0  0  0  0
 11  8  1  0  0  0  0
 11 14  1  0  0  0  0
 12 11  1  0  0  0  0
 13 11  1  0  0  0  0
 14  4  2  0  0  0  0
M  END
