1,2
 OpenBabel05122313063D

 16 16  0  0  0  0  0  0  0  0999 V2000
   -2.0915   -0.2756   -1.0817 S   0  0  0  0  0  1  0  0  0  0  0  0
   -2.6026   -0.3060    2.0483 S   0  0  0  0  0  1  0  0  0  0  0  0
   -3.7198   -0.3450   -0.4399 C   0  0  0  0  0  0  0  0  0  0  0  0
   -4.8449   -0.3946   -1.4527 C   0  0  0  0  0  0  0  0  0  0  0  0
   -4.6237    0.3089   -2.2830 H   0  0  0  0  0  0  0  0  0  0  0  0
   -4.8612   -1.4072   -1.9183 H   0  0  0  0  0  0  0  0  0  0  0  0
   -6.2097   -0.0889   -0.8227 C   0  0  0  0  0  0  0  0  0  0  0  0
   -6.2846    1.0017   -0.6150 H   0  0  0  0  0  0  0  0  0  0  0  0
   -7.0196   -0.3315   -1.5413 H   0  0  0  0  0  0  0  0  0  0  0  0
   -6.3872   -0.8627    0.4863 C   0  0  0  0  0  0  0  0  0  0  0  0
   -6.2899   -1.9520    0.2820 H   0  0  0  0  0  0  0  0  0  0  0  0
   -7.4032   -0.7074    0.9044 H   0  0  0  0  0  0  0  0  0  0  0  0
   -5.3299   -0.4400    1.5139 C   0  0  0  0  0  0  0  0  0  0  0  0
   -5.3235   -1.1307    2.3832 H   0  0  0  0  0  0  0  0  0  0  0  0
   -5.5886    0.5597    1.9327 H   0  0  0  0  0  0  0  0  0  0  0  0
   -3.9394   -0.3733    0.9144 C   0  0  0  0  0  0  0  0  0  0  0  0
  1  3  1  0  0  0  0
  3 16  2  0  0  0  0
  4  7  1  0  0  0  0
  4  3  1  0  0  0  0
  5  4  1  0  0  0  0
  6  4  1  0  0  0  0
  7  8  1  0  0  0  0
  7 10  1  0  0  0  0
  9  7  1  0  0  0  0
 10 12  1  0  0  0  0
 10 13  1  0  0  0  0
 11 10  1  0  0  0  0
 13 15  1  0  0  0  0
 13 14  1  0  0  0  0
 16 13  1  0  0  0  0
 16  2  1  0  0  0  0
M  END
