1,2
 OpenBabel05122313063D

 15 14  0  0  0  0  0  0  0  0999 V2000
    0.3606   -2.7279   -0.0977 S   0  0  0  0  0  1  0  0  0  0  0  0
   -2.0538   -0.4416    0.7553 S   0  0  0  0  0  0  0  0  0  0  0  0
   -2.3590    2.3661    0.0422 O   0  0  0  0  0  0  0  0  0  0  0  0
   -3.9758    2.1425   -1.5219 O   0  0  0  0  0  0  0  0  0  0  0  0
   -1.0759   -3.0038    1.0386 C   0  0  0  0  0  0  0  0  0  0  0  0
   -1.2712   -4.0957    1.0363 H   0  0  0  0  0  0  0  0  0  0  0  0
   -0.7626   -2.7152    2.0648 H   0  0  0  0  0  0  0  0  0  0  0  0
   -2.3370   -2.2621    0.6201 C   0  0  0  0  0  0  0  0  0  0  0  0
   -3.1947   -2.5133    1.2780 H   0  0  0  0  0  0  0  0  0  0  0  0
   -2.5979   -2.4952   -0.4322 H   0  0  0  0  0  0  0  0  0  0  0  0
   -3.1397    0.1471   -0.5806 C   0  0  0  0  0  0  0  0  0  0  0  0
   -2.7637   -0.2387   -1.5526 H   0  0  0  0  0  0  0  0  0  0  0  0
   -4.1806   -0.2020   -0.4263 H   0  0  0  0  0  0  0  0  0  0  0  0
   -3.0942    1.6605   -0.6242 C   0  0  0  0  0  0  0  0  0  0  0  0
   -3.8628    3.1187   -1.5171 H   0  0  0  0  0  0  0  0  0  0  0  0
  1  5  1  0  0  0  0
  4 15  1  0  0  0  0
  4 14  1  0  0  0  0
  5  7  1  0  0  0  0
  6  5  1  0  0  0  0
  8  2  1  0  0  0  0
  8  5  1  0  0  0  0
  8  9  1  0  0  0  0
 10  8  1  0  0  0  0
 11 13  1  0  0  0  0
 11  2  1  0  0  0  0
 12 11  1  0  0  0  0
 14 11  1  0  0  0  0
 14  3  2  0  0  0  0
M  END
