1,2
 OpenBabel05122313063D

 35 36  0  0  0  0  0  0  0  0999 V2000
   -1.6939   -1.7121    1.0120 S   0  0  0  0  0  1  0  0  0  0  0  0
   -2.4021    0.3012   -1.1307 S   0  0  0  0  0  1  0  0  0  0  0  0
   -4.1446   -1.4127   -0.0326 N   0  0  0  0  0  0  0  0  0  0  0  0
   -6.8470   -1.3971    0.8766 N   0  0  0  0  0  0  0  0  0  0  0  0
   -2.8606   -0.9794   -0.0458 C   0  0  0  0  0  3  0  0  0  0  0  0
   -4.6359   -2.4616    0.8624 C   0  0  0  0  0  0  0  0  0  0  0  0
   -3.7977   -2.8119    1.4926 H   0  0  0  0  0  0  0  0  0  0  0  0
   -4.9990   -3.3101    0.2413 H   0  0  0  0  0  0  0  0  0  0  0  0
   -5.7854   -1.9285    1.7184 C   0  0  0  0  0  0  0  0  0  0  0  0
   -6.1908   -2.7586    2.3340 H   0  0  0  0  0  0  0  0  0  0  0  0
   -5.3773   -1.1566    2.4261 H   0  0  0  0  0  0  0  0  0  0  0  0
   -6.3460   -0.3307    0.0188 C   0  0  0  0  0  0  0  0  0  0  0  0
   -5.9775    0.5469    0.6167 H   0  0  0  0  0  0  0  0  0  0  0  0
   -7.1718    0.0353   -0.6246 H   0  0  0  0  0  0  0  0  0  0  0  0
   -5.2057   -0.8375   -0.8625 C   0  0  0  0  0  0  0  0  0  0  0  0
   -5.5857   -1.6301   -1.5442 H   0  0  0  0  0  0  0  0  0  0  0  0
   -4.7778   -0.0191   -1.4701 H   0  0  0  0  0  0  0  0  0  0  0  0
   -8.0430   -1.0166    1.6227 C   0  0  0  0  0  0  0  0  0  0  0  0
   -7.8764   -0.1107    2.2662 H   0  0  0  0  0  0  0  0  0  0  0  0
   -8.2687   -1.8566    2.3189 H   0  0  0  0  0  0  0  0  0  0  0  0
   -9.2241   -0.7960    0.7233 C   0  0  0  0  0  0  0  0  0  0  0  0
   -9.4466   -1.6303    0.0351 H   0  0  0  0  0  0  0  0  0  0  0  0
  -11.1653    0.6019   -0.1072 C   0  0  0  0  0  0  0  0  0  0  0  0
   -9.9835    0.3237    0.7203 C   0  0  0  0  0  0  0  0  0  0  0  0
   -9.6979    1.1369    1.4127 H   0  0  0  0  0  0  0  0  0  0  0  0
  -11.7950    1.8644   -0.0016 C   0  0  0  0  0  0  0  0  0  0  0  0
  -11.3862    2.6060    0.7031 H   0  0  0  0  0  0  0  0  0  0  0  0
  -12.9195    2.1833   -0.7749 C   0  0  0  0  0  0  0  0  0  0  0  0
  -13.3901    3.1731   -0.6740 H   0  0  0  0  0  0  0  0  0  0  0  0
  -13.4432    1.2427   -1.6746 C   0  0  0  0  0  0  0  0  0  0  0  0
  -14.3265    1.4883   -2.2833 H   0  0  0  0  0  0  0  0  0  0  0  0
  -12.8319   -0.0186   -1.7909 C   0  0  0  0  0  0  0  0  0  0  0  0
  -13.2382   -0.7635   -2.4920 H   0  0  0  0  0  0  0  0  0  0  0  0
  -11.7102   -0.3359   -1.0178 C   0  0  0  0  0  0  0  0  0  0  0  0
  -11.2492   -1.3299   -1.1182 H   0  0  0  0  0  0  0  0  0  0  0  0
  2  5  1  0  0  0  0
  3  6  1  0  0  0  0
  4 18  1  0  0  0  0
  4  9  1  0  0  0  0
  5  3  1  0  0  0  0
  5  1  1  0  0  0  0
  6  7  1  0  0  0  0
  6  9  1  0  0  0  0
  8  6  1  0  0  0  0
  9 10  1  0  0  0  0
  9 11  1  0  0  0  0
 12 13  1  0  0  0  0
 12  4  1  0  0  0  0
 14 12  1  0  0  0  0
 15  3  1  0  0  0  0
 15 12  1  0  0  0  0
 16 15  1  0  0  0  0
 17 15  1  0  0  0  0
 18 19  1  0  0  0  0
 18 20  1  0  0  0  0
 21 18  1  0  0  0  0
 22 21  1  0  0  0  0
 23 26  1  0  0  0  0
 23 24  1  0  0  0  0
 24 21  2  0  0  0  0
 24 25  1  0  0  0  0
 26 27  1  0  0  0  0
 28 29  1  0  0  0  0
 28 26  2  0  0  0  0
 30 28  1  0  0  0  0
 31 30  1  0  0  0  0
 32 30  2  0  0  0  0
 32 34  1  0  0  0  0
 33 32  1  0  0  0  0
 34 23  2  0  0  0  0
 35 34  1  0  0  0  0
M  END
