1,2
 OpenBabel05122313063D

 59 61  0  0  0  0  0  0  0  0999 V2000
    0.5711    0.3903   -2.3212 S   0  0  0  0  0  0  0  0  0  0  0  0
   -0.5323    0.4132    2.3328 S   0  0  0  0  0  0  0  0  0  0  0  0
   -1.5519    2.5621    0.2206 O   0  0  0  0  0  0  0  0  0  0  0  0
    1.7783    2.4215   -0.2125 O   0  0  0  0  0  0  0  0  0  0  0  0
   -0.0129   -2.5797   -1.4125 O   0  0  0  0  0  0  0  0  0  0  0  0
   -0.2406   -2.5921    1.3936 O   0  0  0  0  0  0  0  0  0  0  0  0
   -0.9053    3.4341   -0.7159 C   0  0  0  0  0  0  0  0  0  0  0  0
   -1.6502    4.1303   -1.1606 H   0  0  0  0  0  0  0  0  0  0  0  0
   -0.4638    2.8285   -1.5363 H   0  0  0  0  0  0  0  0  0  0  0  0
    0.1853    4.2107    0.0094 C   0  0  0  0  0  0  0  0  0  0  0  0
   -0.2647    4.8912    0.7618 H   0  0  0  0  0  0  0  0  0  0  0  0
    0.6951    4.8535   -0.7379 H   0  0  0  0  0  0  0  0  0  0  0  0
    1.2007    3.3345    0.7301 C   0  0  0  0  0  0  0  0  0  0  0  0
    1.9982    3.9593    1.1890 H   0  0  0  0  0  0  0  0  0  0  0  0
    0.7023    2.7577    1.5386 H   0  0  0  0  0  0  0  0  0  0  0  0
    2.5201    1.3766    0.2515 C   0  0  0  0  0  0  0  0  0  0  0  0
    2.9088    1.2063    1.5942 C   0  0  0  0  0  0  0  0  0  0  0  0
    2.6475    1.9559    2.3519 H   0  0  0  0  0  0  0  0  0  0  0  0
    3.6388    0.0654    1.9668 C   0  0  0  0  0  0  0  0  0  0  0  0
    3.9417   -0.0562    3.0178 H   0  0  0  0  0  0  0  0  0  0  0  0
    3.9955   -0.9025    1.0169 C   0  0  0  0  0  0  0  0  0  0  0  0
    4.5784   -1.7861    1.3132 H   0  0  0  0  0  0  0  0  0  0  0  0
    3.6168   -0.7222   -0.3227 C   0  0  0  0  0  0  0  0  0  0  0  0
    3.9079   -1.4665   -1.0811 H   0  0  0  0  0  0  0  0  0  0  0  0
    2.8787    0.4042   -0.7252 C   0  0  0  0  0  0  0  0  0  0  0  0
    2.4201    0.6003   -2.1386 C   0  0  0  0  0  0  0  0  0  0  0  0
    2.9033   -0.1127   -2.8331 H   0  0  0  0  0  0  0  0  0  0  0  0
    2.6153    1.6302   -2.4941 H   0  0  0  0  0  0  0  0  0  0  0  0
    0.4314   -1.1634   -3.2868 C   0  0  0  0  0  0  0  0  0  0  0  0
   -0.6396   -1.1976   -3.5744 H   0  0  0  0  0  0  0  0  0  0  0  0
    1.0271   -1.0517   -4.2147 H   0  0  0  0  0  0  0  0  0  0  0  0
    0.8154   -2.4368   -2.5508 C   0  0  0  0  0  0  0  0  0  0  0  0
    0.6771   -3.3012   -3.2438 H   0  0  0  0  0  0  0  0  0  0  0  0
    1.8920   -2.4210   -2.2545 H   0  0  0  0  0  0  0  0  0  0  0  0
    0.2520   -3.7387   -0.6339 C   0  0  0  0  0  0  0  0  0  0  0  0
    1.3251   -3.7675   -0.3294 H   0  0  0  0  0  0  0  0  0  0  0  0
    0.0329   -4.6637   -1.2166 H   0  0  0  0  0  0  0  0  0  0  0  0
   -0.6308   -3.7004    0.5945 C   0  0  0  0  0  0  0  0  0  0  0  0
   -1.6998   -3.6037    0.2896 H   0  0  0  0  0  0  0  0  0  0  0  0
   -0.5170   -4.6545    1.1603 H   0  0  0  0  0  0  0  0  0  0  0  0
   -1.0505   -2.3794    2.5340 C   0  0  0  0  0  0  0  0  0  0  0  0
   -0.9978   -3.2597    3.2188 H   0  0  0  0  0  0  0  0  0  0  0  0
   -2.1204   -2.2557    2.2393 H   0  0  0  0  0  0  0  0  0  0  0  0
   -0.5451   -1.1565    3.2823 C   0  0  0  0  0  0  0  0  0  0  0  0
    0.5169   -1.2970    3.5707 H   0  0  0  0  0  0  0  0  0  0  0  0
   -1.1287   -0.9968    4.2108 H   0  0  0  0  0  0  0  0  0  0  0  0
   -2.3522    0.7974    2.1407 C   0  0  0  0  0  0  0  0  0  0  0  0
   -2.9032    0.1340    2.8339 H   0  0  0  0  0  0  0  0  0  0  0  0
   -2.4499    1.8412    2.4954 H   0  0  0  0  0  0  0  0  0  0  0  0
   -2.8235    0.6461    0.7259 C   0  0  0  0  0  0  0  0  0  0  0  0
   -3.6577   -0.4096    0.3192 C   0  0  0  0  0  0  0  0  0  0  0  0
   -4.0141   -1.1276    1.0751 H   0  0  0  0  0  0  0  0  0  0  0  0
   -4.0503   -0.5515   -1.0209 C   0  0  0  0  0  0  0  0  0  0  0  0
   -4.7086   -1.3794   -1.3202 H   0  0  0  0  0  0  0  0  0  0  0  0
   -3.6099    0.3849   -1.9674 C   0  0  0  0  0  0  0  0  0  0  0  0
   -3.9223    0.2941   -3.0187 H   0  0  0  0  0  0  0  0  0  0  0  0
   -2.7836    1.4566   -1.5904 C   0  0  0  0  0  0  0  0  0  0  0  0
   -2.4585    2.1839   -2.3452 H   0  0  0  0  0  0  0  0  0  0  0  0
   -2.3814    1.5872   -0.2473 C   0  0  0  0  0  0  0  0  0  0  0  0
  1 26  1  0  0  0  0
  2 44  1  0  0  0  0
  4 16  1  0  0  0  0
  4 13  1  0  0  0  0
  5 35  1  0  0  0  0
  6 41  1  0  0  0  0
  7 10  1  0  0  0  0
  7  3  1  0  0  0  0
  8  7  1  0  0  0  0
  9  7  1  0  0  0  0
 10 13  1  0  0  0  0
 10 11  1  0  0  0  0
 12 10  1  0  0  0  0
 13 14  1  0  0  0  0
 13 15  1  0  0  0  0
 16 17  1  0  0  0  0
 17 19  2  0  0  0  0
 17 18  1  0  0  0  0
 19 20  1  0  0  0  0
 21 22  1  0  0  0  0
 21 19  1  0  0  0  0
 23 21  2  0  0  0  0
 24 23  1  0  0  0  0
 25 23  1  0  0  0  0
 25 16  2  0  0  0  0
 26 25  1  0  0  0  0
 27 26  1  0  0  0  0
 28 26  1  0  0  0  0
 29 32  1  0  0  0  0
 29  1  1  0  0  0  0
 30 29  1  0  0  0  0
 31 29  1  0  0  0  0
 32 34  1  0  0  0  0
 32  5  1  0  0  0  0
 33 32  1  0  0  0  0
 35 36  1  0  0  0  0
 35 38  1  0  0  0  0
 37 35  1  0  0  0  0
 38 40  1  0  0  0  0
 38  6  1  0  0  0  0
 39 38  1  0  0  0  0
 41 42  1  0  0  0  0
 41 44  1  0  0  0  0
 43 41  1  0  0  0  0
 44 45  1  0  0  0  0
 44 46  1  0  0  0  0
 47  2  1  0  0  0  0
 47 49  1  0  0  0  0
 47 48  1  0  0  0  0
 50 47  1  0  0  0  0
 51 50  1  0  0  0  0
 51 52  1  0  0  0  0
 53 51  2  0  0  0  0
 54 53  1  0  0  0  0
 55 57  2  0  0  0  0
 55 53  1  0  0  0  0
 56 55  1  0  0  0  0
 57 59  1  0  0  0  0
 58 57  1  0  0  0  0
 59  3  1  0  0  0  0
 59 50  2  0  0  0  0
M  END
