1,8
 OpenBabel05122313063D

 29 29  0  0  0  0  0  0  0  0999 V2000
   -1.5073   -0.3740    1.7654 S   0  0  0  0  0  0  0  0  0  0  0  0
   -2.6071   -1.6234    0.9322 C   0  0  0  0  0  0  0  0  0  0  0  0
   -2.0188   -2.5477    0.7725 H   0  0  0  0  0  0  0  0  0  0  0  0
   -3.4236   -1.8670    1.6420 H   0  0  0  0  0  0  0  0  0  0  0  0
   -3.1796   -1.0901   -0.3709 C   0  0  0  0  0  0  0  0  0  0  0  0
   -3.8941   -0.2623   -0.1890 H   0  0  0  0  0  0  0  0  0  0  0  0
   -3.7176   -1.8841   -0.9305 H   0  0  0  0  0  0  0  0  0  0  0  0
   -1.9338   -0.3184   -1.4992 S   0  0  0  0  0  0  0  0  0  0  0  0
   -0.8213   -1.7732   -1.8401 C   0  0  0  0  0  0  0  0  0  0  0  0
   -1.2135   -2.6287   -1.2550 H   0  0  0  0  0  0  0  0  0  0  0  0
   -0.9632   -2.0187   -2.9111 H   0  0  0  0  0  0  0  0  0  0  0  0
    0.6695   -1.5297   -1.5817 C   0  0  0  0  0  0  0  0  0  0  0  0
    1.1912   -2.4486   -1.9620 H   0  0  0  0  0  0  0  0  0  0  0  0
    0.9941   -0.6822   -2.2219 H   0  0  0  0  0  0  0  0  0  0  0  0
    1.0273   -1.1778   -0.2216 N   0  0  0  0  0  0  0  0  0  0  0  0
    0.6670   -2.0633    0.8628 C   0  0  0  0  0  0  0  0  0  0  0  0
    1.5493   -2.6182    1.2725 H   0  0  0  0  0  0  0  0  0  0  0  0
   -0.0059   -2.8591    0.4814 H   0  0  0  0  0  0  0  0  0  0  0  0
    0.0173   -1.3702    2.0750 C   0  0  0  0  0  0  0  0  0  0  0  0
    0.6811   -0.5887    2.5003 H   0  0  0  0  0  0  0  0  0  0  0  0
   -0.2155   -2.1056    2.8726 H   0  0  0  0  0  0  0  0  0  0  0  0
    2.2605   -0.4223   -0.0677 C   0  0  0  0  0  0  0  0  0  0  0  0
    2.2864    0.0313    0.9436 H   0  0  0  0  0  0  0  0  0  0  0  0
    2.2264    0.4413   -0.7640 H   0  0  0  0  0  0  0  0  0  0  0  0
    3.5400   -1.2682   -0.3160 C   0  0  0  0  0  0  0  0  0  0  0  0
    3.5456   -2.1675    0.3383 H   0  0  0  0  0  0  0  0  0  0  0  0
    3.5583   -1.6393   -1.3632 H   0  0  0  0  0  0  0  0  0  0  0  0
    4.7715   -0.5242   -0.0706 C   0  0  0  0  0  0  0  0  0  0  0  0
    5.7444    0.0935    0.1391 N   0  0  0  0  0  0  0  0  0  0  0  0
  1 19  1  0  0  0  0
  2  4  1  0  0  0  0
  2  1  1  0  0  0  0
  3  2  1  0  0  0  0
  5  6  1  0  0  0  0
  5  2  1  0  0  0  0
  7  5  1  0  0  0  0
  8  5  1  0  0  0  0
  9 12  1  0  0  0  0
  9  8  1  0  0  0  0
  9 10  1  0  0  0  0
 11  9  1  0  0  0  0
 12 15  1  0  0  0  0
 13 12  1  0  0  0  0
 14 12  1  0  0  0  0
 15 22  1  0  0  0  0
 15 16  1  0  0  0  0
 16 17  1  0  0  0  0
 16 19  1  0  0  0  0
 18 16  1  0  0  0  0
 19 20  1  0  0  0  0
 19 21  1  0  0  0  0
 22 23  1  0  0  0  0
 24 22  1  0  0  0  0
 25 28  1  0  0  0  0
 25 22  1  0  0  0  0
 25 26  1  0  0  0  0
 27 25  1  0  0  0  0
 28 29  3  0  0  0  0
M  END
