1,2
 OpenBabel05122313063D

 38 38  0  0  0  0  0  0  0  0999 V2000
   -0.1768   -1.2302   -1.8108 S   0  0  0  0  0  1  0  0  0  0  0  0
    0.2166    1.6666    0.7054 S   0  0  0  0  0  1  0  0  0  0  0  0
    1.2322   -1.3616   -0.4018 P   0  0  0  0  0  4  0  0  0  0  0  0
    0.5850   -1.9971    0.9615 O   0  0  0  0  0  0  0  0  0  0  0  0
    2.3269   -2.5316   -0.7432 O   0  0  0  0  0  0  0  0  0  0  0  0
    2.1890   -0.0535   -0.1011 N   0  0  0  0  0  0  0  0  0  0  0  0
    1.8223    1.1574    0.2886 C   0  0  0  0  0  0  0  0  0  0  0  0
    2.9265    2.1623    0.4109 C   0  0  0  0  0  0  0  0  0  0  0  0
    2.6805    3.5076    0.7645 C   0  0  0  0  0  0  0  0  0  0  0  0
    1.6415    3.8180    0.9501 H   0  0  0  0  0  0  0  0  0  0  0  0
    3.7345    4.4233    0.8708 C   0  0  0  0  0  0  0  0  0  0  0  0
    3.5230    5.4678    1.1467 H   0  0  0  0  0  0  0  0  0  0  0  0
    5.0558    4.0141    0.6247 C   0  0  0  0  0  0  0  0  0  0  0  0
    5.8836    4.7351    0.7081 H   0  0  0  0  0  0  0  0  0  0  0  0
    5.3136    2.6792    0.2707 C   0  0  0  0  0  0  0  0  0  0  0  0
    6.3460    2.3503    0.0755 H   0  0  0  0  0  0  0  0  0  0  0  0
    4.2606    1.7628    0.1650 C   0  0  0  0  0  0  0  0  0  0  0  0
    4.4429    0.7146   -0.1110 H   0  0  0  0  0  0  0  0  0  0  0  0
    3.2741   -2.3182   -1.8287 C   0  0  0  0  0  0  0  0  0  0  0  0
    3.1826   -1.2627   -2.1688 H   0  0  0  0  0  0  0  0  0  0  0  0
    2.9106   -3.2585   -2.9703 C   0  0  0  0  0  0  0  0  0  0  0  0
    2.9645   -4.3140   -2.6342 H   0  0  0  0  0  0  0  0  0  0  0  0
    3.6059   -3.1247   -3.8235 H   0  0  0  0  0  0  0  0  0  0  0  0
    1.8796   -3.0527   -3.3185 H   0  0  0  0  0  0  0  0  0  0  0  0
    4.6685   -2.5343   -1.2588 C   0  0  0  0  0  0  0  0  0  0  0  0
    4.8534   -1.8251   -0.4284 H   0  0  0  0  0  0  0  0  0  0  0  0
    5.4398   -2.3767   -2.0392 H   0  0  0  0  0  0  0  0  0  0  0  0
    4.7721   -3.5672   -0.8677 H   0  0  0  0  0  0  0  0  0  0  0  0
    1.3466   -1.9905    2.2111 C   0  0  0  0  0  0  0  0  0  0  0  0
    2.2595   -1.3764    2.0532 H   0  0  0  0  0  0  0  0  0  0  0  0
    0.4711   -1.3277    3.2643 C   0  0  0  0  0  0  0  0  0  0  0  0
    0.1905   -0.3081    2.9347 H   0  0  0  0  0  0  0  0  0  0  0  0
    1.0116   -1.2575    4.2297 H   0  0  0  0  0  0  0  0  0  0  0  0
   -0.4557   -1.9161    3.4258 H   0  0  0  0  0  0  0  0  0  0  0  0
    1.7442   -3.4260    2.5240 C   0  0  0  0  0  0  0  0  0  0  0  0
    0.8428   -4.0580    2.6602 H   0  0  0  0  0  0  0  0  0  0  0  0
    2.3438   -3.4695    3.4557 H   0  0  0  0  0  0  0  0  0  0  0  0
    2.3440   -3.8435    1.6926 H   0  0  0  0  0  0  0  0  0  0  0  0
  1  3  1  0  0  0  0
  3  6  1  0  0  0  0
  3  4  1  0  0  0  0
  4 29  1  0  0  0  0
  5  3  1  0  0  0  0
  6  7  2  0  0  0  0
  7  8  1  0  0  0  0
  7  2  1  0  0  0  0
  8  9  1  0  0  0  0
  9 11  2  0  0  0  0
  9 10  1  0  0  0  0
 11 12  1  0  0  0  0
 13 14  1  0  0  0  0
 13 11  1  0  0  0  0
 15 13  2  0  0  0  0
 16 15  1  0  0  0  0
 17 15  1  0  0  0  0
 17  8  2  0  0  0  0
 18 17  1  0  0  0  0
 19 25  1  0  0  0  0
 19  5  1  0  0  0  0
 20 19  1  0  0  0  0
 21 22  1  0  0  0  0
 21 19  1  0  0  0  0
 23 21  1  0  0  0  0
 24 21  1  0  0  0  0
 25 28  1  0  0  0  0
 25 26  1  0  0  0  0
 27 25  1  0  0  0  0
 29 35  1  0  0  0  0
 29 31  1  0  0  0  0
 30 29  1  0  0  0  0
 31 34  1  0  0  0  0
 31 33  1  0  0  0  0
 32 31  1  0  0  0  0
 35 36  1  0  0  0  0
 35 37  1  0  0  0  0
 38 35  1  0  0  0  0
M  END
