1,2
 OpenBabel05122313063D

 13 12  0  0  0  0  0  0  0  0999 V2000
    2.7763    0.5453    1.2400 S   0  0  0  0  0  1  0  0  0  0  0  0
    2.2834   -1.7600   -1.1386 S   0  0  0  0  0  1  0  0  0  0  0  0
    3.6290   -0.6322   -0.1692 P   0  0  0  0  0  4  0  0  0  0  0  0
    4.4705    0.2307   -1.2833 O   0  0  0  0  0  0  0  0  0  0  0  0
    4.8927   -1.4904    0.4584 O   0  0  0  0  0  0  0  0  0  0  0  0
    5.4895    1.1311   -0.8347 C   0  0  0  0  0  0  0  0  0  0  0  0
    5.7684    1.7563   -1.7040 H   0  0  0  0  0  0  0  0  0  0  0  0
    6.3784    0.5728   -0.4750 H   0  0  0  0  0  0  0  0  0  0  0  0
    5.1118    1.7813   -0.0150 H   0  0  0  0  0  0  0  0  0  0  0  0
    4.6454   -2.3934    1.5350 C   0  0  0  0  0  0  0  0  0  0  0  0
    5.6304   -2.7504    1.8911 H   0  0  0  0  0  0  0  0  0  0  0  0
    4.0429   -3.2621    1.1915 H   0  0  0  0  0  0  0  0  0  0  0  0
    4.1095   -1.8868    2.3669 H   0  0  0  0  0  0  0  0  0  0  0  0
  2  3  1  0  0  0  0
  3  5  1  0  0  0  0
  3  1  1  0  0  0  0
  4  6  1  0  0  0  0
  4  3  1  0  0  0  0
  5 10  1  0  0  0  0
  6  8  1  0  0  0  0
  6  9  1  0  0  0  0
  7  6  1  0  0  0  0
 10 11  1  0  0  0  0
 10 13  1  0  0  0  0
 12 10  1  0  0  0  0
M  END
