50,51
 OpenBabel05122313063D

 51 55  0  0  0  0  0  0  0  0999 V2000
   -3.4812   -1.4108   -0.5399 C   0  0  0  0  0  0  0  0  0  0  0  0
   -3.2101   -1.6633    0.8162 C   0  0  0  0  0  0  0  0  0  0  0  0
   -2.1681   -1.7435    1.1695 H   0  0  0  0  0  0  0  0  0  0  0  0
   -4.2786   -1.8274    1.7124 C   0  0  0  0  0  0  0  0  0  0  0  0
   -4.0616   -2.0230    2.7732 H   0  0  0  0  0  0  0  0  0  0  0  0
   -5.6045   -1.7318    1.2638 C   0  0  0  0  0  0  0  0  0  0  0  0
   -6.4373   -1.8514    1.9732 H   0  0  0  0  0  0  0  0  0  0  0  0
   -5.8691   -1.4927   -0.0956 C   0  0  0  0  0  0  0  0  0  0  0  0
   -6.9076   -1.4332   -0.4556 H   0  0  0  0  0  0  0  0  0  0  0  0
   -4.8105   -1.3452   -1.0028 C   0  0  0  0  0  0  0  0  0  0  0  0
   -5.0140   -1.1814   -2.0722 H   0  0  0  0  0  0  0  0  0  0  0  0
   -2.3803    0.5601   -2.2597 C   0  0  0  0  0  0  0  0  0  0  0  0
   -1.5135    0.7258   -2.9277 H   0  0  0  0  0  0  0  0  0  0  0  0
   -3.3144    0.5825   -2.8523 H   0  0  0  0  0  0  0  0  0  0  0  0
   -2.4061    1.5476   -1.1401 C   0  0  0  0  0  0  0  0  0  0  0  0
   -3.6086    1.9696   -0.5865 C   0  0  0  0  0  0  0  0  0  0  0  0
   -4.5520    1.5848   -1.0025 H   0  0  0  0  0  0  0  0  0  0  0  0
   -3.6549    2.8779    0.5097 C   0  0  0  0  0  0  0  0  0  0  0  0
   -4.6304    3.1775    0.9202 H   0  0  0  0  0  0  0  0  0  0  0  0
   -2.4860    3.3709    1.0545 C   0  0  0  0  0  0  0  0  0  0  0  0
   -2.5069    4.0663    1.9076 H   0  0  0  0  0  0  0  0  0  0  0  0
   -1.2199    2.9708    0.5253 C   0  0  0  0  0  0  0  0  0  0  0  0
   -1.1661    2.0406   -0.5867 C   0  0  0  0  0  0  0  0  0  0  0  0
   -0.0001    3.4231    1.0534 C   0  0  0  0  0  0  0  0  0  0  0  0
   -0.0002    4.1205    1.9063 H   0  0  0  0  0  0  0  0  0  0  0  0
    1.2198    2.9709    0.5255 C   0  0  0  0  0  0  0  0  0  0  0  0
    1.1663    2.0407   -0.5865 C   0  0  0  0  0  0  0  0  0  0  0  0
    2.4858    3.3711    1.0549 C   0  0  0  0  0  0  0  0  0  0  0  0
    2.5065    4.0665    1.9080 H   0  0  0  0  0  0  0  0  0  0  0  0
    3.6548    2.8782    0.5102 C   0  0  0  0  0  0  0  0  0  0  0  0
    4.6302    3.1779    0.9210 H   0  0  0  0  0  0  0  0  0  0  0  0
    3.6088    1.9699   -0.5859 C   0  0  0  0  0  0  0  0  0  0  0  0
    4.5523    1.5852   -1.0018 H   0  0  0  0  0  0  0  0  0  0  0  0
    2.4064    1.5479   -1.1398 C   0  0  0  0  0  0  0  0  0  0  0  0
    2.3807    0.5603   -2.2593 C   0  0  0  0  0  0  0  0  0  0  0  0
    3.3148    0.5827   -2.8519 H   0  0  0  0  0  0  0  0  0  0  0  0
    1.5139    0.7259   -2.9273 H   0  0  0  0  0  0  0  0  0  0  0  0
    3.4817   -1.4105   -0.5396 C   0  0  0  0  0  0  0  0  0  0  0  0
    3.2108   -1.6628    0.8166 C   0  0  0  0  0  0  0  0  0  0  0  0
    2.1689   -1.7426    1.1701 H   0  0  0  0  0  0  0  0  0  0  0  0
    4.2794   -1.8272    1.7126 C   0  0  0  0  0  0  0  0  0  0  0  0
    4.0626   -2.0227    2.7735 H   0  0  0  0  0  0  0  0  0  0  0  0
    5.6053   -1.7319    1.2638 C   0  0  0  0  0  0  0  0  0  0  0  0
    6.4381   -1.8518    1.9730 H   0  0  0  0  0  0  0  0  0  0  0  0
    5.8696   -1.4929   -0.0957 C   0  0  0  0  0  0  0  0  0  0  0  0
    6.9081   -1.4337   -0.4559 H   0  0  0  0  0  0  0  0  0  0  0  0
    4.8110   -1.3452   -1.0027 C   0  0  0  0  0  0  0  0  0  0  0  0
    5.0143   -1.1815   -2.0721 H   0  0  0  0  0  0  0  0  0  0  0  0
    0.0002    1.6074   -1.1094 N   0  0  0  0  0  0  0  0  0  0  0  0
   -2.1341   -1.2105   -1.7094 S   0  0  0  0  0  0  0  0  0  0  0  0
    2.1344   -1.2101   -1.7088 S   0  0  0  0  0  0  0  0  0  0  0  0
  1  2  1  0  0  0  0
  2  3  1  0  0  0  0
  2  4  2  0  0  0  0
  4  5  1  0  0  0  0
  6  4  1  0  0  0  0
  6  7  1  0  0  0  0
  8  6  2  0  0  0  0
  9  8  1  0  0  0  0
 10  1  2  0  0  0  0
 10  8  1  0  0  0  0
 11 10  1  0  0  0  0
 12 50  1  0  0  0  0
 12 15  1  0  0  0  0
 13 12  1  0  0  0  0
 14 12  1  0  0  0  0
 15 23  2  0  0  0  0
 15 16  1  0  0  0  0
 16 18  2  0  0  0  0
 17 16  1  0  0  0  0
 18 19  1  0  0  0  0
 18 20  1  0  0  0  0
 20 21  1  0  0  0  0
 22 24  1  0  0  0  0
 22 20  2  0  0  0  0
 23 22  1  0  0  0  0
 24 25  1  0  0  0  0
 26 24  2  0  0  0  0
 26 28  1  0  0  0  0
 27 26  1  0  0  0  0
 28 29  1  0  0  0  0
 30 31  1  0  0  0  0
 30 28  2  0  0  0  0
 32 30  1  0  0  0  0
 33 32  1  0  0  0  0
 34 27  1  0  0  0  0
 34 32  2  0  0  0  0
 35 51  1  0  0  0  0
 35 34  1  0  0  0  0
 36 35  1  0  0  0  0
 37 35  1  0  0  0  0
 38 39  1  0  0  0  0
 39 40  1  0  0  0  0
 39 41  2  0  0  0  0
 41 42  1  0  0  0  0
 43 41  1  0  0  0  0
 43 44  1  0  0  0  0
 45 43  2  0  0  0  0
 46 45  1  0  0  0  0
 47 38  2  0  0  0  0
 47 45  1  0  0  0  0
 48 47  1  0  0  0  0
 49 23  1  0  0  0  0
 49 27  2  0  0  0  0
 50  1  1  0  0  0  0
 51 38  1  0  0  0  0
M  END
