1,18
 OpenBabel05122313063D

 18 19  0  0  0  0  0  0  0  0999 V2000
   -0.6220   -1.4241   -1.1567 S   0  0  0  0  0  1  0  0  0  0  0  0
   -2.3200   -1.1942   -0.7029 C   0  0  0  0  0  0  0  0  0  0  0  0
   -3.0838   -2.3687   -0.7917 C   0  0  0  0  0  0  0  0  0  0  0  0
   -2.5610   -3.3015   -1.0506 H   0  0  0  0  0  0  0  0  0  0  0  0
   -4.4724   -2.3834   -0.5556 C   0  0  0  0  0  0  0  0  0  0  0  0
   -5.0283   -3.3307   -0.6272 H   0  0  0  0  0  0  0  0  0  0  0  0
   -5.1200   -1.2056   -0.2271 C   0  0  0  0  0  0  0  0  0  0  0  0
   -6.2028   -1.1903   -0.0296 H   0  0  0  0  0  0  0  0  0  0  0  0
   -4.4024    0.0231   -0.1458 C   0  0  0  0  0  0  0  0  0  0  0  0
   -5.1238    1.2126    0.1630 C   0  0  0  0  0  0  0  0  0  0  0  0
   -6.2064    1.1328    0.3448 H   0  0  0  0  0  0  0  0  0  0  0  0
   -4.4798    2.4362    0.2227 C   0  0  0  0  0  0  0  0  0  0  0  0
   -5.0390    3.3563    0.4513 H   0  0  0  0  0  0  0  0  0  0  0  0
   -3.0905    2.4999    0.0013 C   0  0  0  0  0  0  0  0  0  0  0  0
   -2.5694    3.4673    0.0573 H   0  0  0  0  0  0  0  0  0  0  0  0
   -2.3225    1.3589   -0.2811 C   0  0  0  0  0  0  0  0  0  0  0  0
   -2.9614    0.0625   -0.3768 C   0  0  0  0  0  0  0  0  0  0  0  0
   -0.6200    1.7221   -0.6065 S   0  0  0  0  0  1  0  0  0  0  0  0
  1  2  1  0  0  0  0
  2 17  1  0  0  0  0
  3  2  2  0  0  0  0
  3  5  1  0  0  0  0
  4  3  1  0  0  0  0
  5  7  2  0  0  0  0
  6  5  1  0  0  0  0
  7  9  1  0  0  0  0
  7  8  1  0  0  0  0
  9 10  1  0  0  0  0
 10 12  2  0  0  0  0
 10 11  1  0  0  0  0
 12 13  1  0  0  0  0
 14 15  1  0  0  0  0
 14 12  1  0  0  0  0
 16 14  2  0  0  0  0
 17 16  1  0  0  0  0
 17  9  2  0  0  0  0
 18 16  1  0  0  0  0
M  END
