1,2
 OpenBabel05122313063D

 20 20  0  0  1  0  0  0  0  0999 V2000
    1.6191   -1.4245    0.1991 S   0  0  0  0  0  1  0  0  0  0  0  0
    1.3392    1.5646   -0.6406 S   0  0  0  0  0  1  0  0  0  0  0  0
    4.4434   -1.5224   -0.6837 S   0  0  0  0  0  0  0  0  0  0  0  0
    4.2519    1.7158   -1.3077 S   0  0  0  0  0  0  0  0  0  0  0  0
    6.7101   -0.7944    0.6856 O   0  0  0  0  0  0  0  0  0  0  0  0
    4.8655    1.0665    1.2904 O   0  0  0  0  0  0  0  0  0  0  0  0
    2.9868   -0.5795   -0.4261 C   0  0  0  0  0  0  0  0  0  0  0  0
    2.8591    0.7705   -0.7905 C   0  0  0  0  0  0  0  0  0  0  0  0
    5.8927   -0.3252   -0.3273 C   0  0  2  0  0  0  0  0  0  0  0  0
    6.4212   -0.2870   -1.3085 H   0  0  0  0  0  0  0  0  0  0  0  0
    7.4160   -1.9806    0.3673 C   0  0  0  0  0  0  0  0  0  0  0  0
    8.0939   -2.1939    1.2147 H   0  0  0  0  0  0  0  0  0  0  0  0
    8.0188   -1.8636   -0.5645 H   0  0  0  0  0  0  0  0  0  0  0  0
    6.7218   -2.8419    0.2376 H   0  0  0  0  0  0  0  0  0  0  0  0
    5.4209    1.0806    0.0312 C   0  0  1  0  0  0  0  0  0  0  0  0
    6.2918    1.7778   -0.0484 H   0  0  0  0  0  0  0  0  0  0  0  0
    4.5498    2.3433    1.8220 C   0  0  0  0  0  0  0  0  0  0  0  0
    4.1665    2.1766    2.8452 H   0  0  0  0  0  0  0  0  0  0  0  0
    3.7704    2.8504    1.2115 H   0  0  0  0  0  0  0  0  0  0  0  0
    5.4515    2.9974    1.8668 H   0  0  0  0  0  0  0  0  0  0  0  0
  3  7  1  0  0  0  0
  3  9  1  0  0  0  0
  4  8  1  0  0  0  0
  4 15  1  0  0  0  0
  6 17  1  0  0  0  0
  7  1  1  0  0  0  0
  8  2  1  0  0  0  0
  8  7  2  0  0  0  0
  9 10  1  6  0  0  0
  9 15  1  0  0  0  0
  9  5  1  0  0  0  0
 11  5  1  0  0  0  0
 11 12  1  0  0  0  0
 13 11  1  0  0  0  0
 14 11  1  0  0  0  0
 15 16  1  1  0  0  0
 15  6  1  0  0  0  0
 17 20  1  0  0  0  0
 17 18  1  0  0  0  0
 19 17  1  0  0  0  0
M  END
