1,2
 OpenBabel05122313063D

 28 30  0  0  1  0  0  0  0  0999 V2000
    0.7776    1.6491    0.0083 S   0  0  0  0  0  1  0  0  0  0  0  0
    0.6567   -1.7036    0.0561 S   0  0  0  0  0  1  0  0  0  0  0  0
    4.3674   -0.1754    0.0767 N   0  0  0  0  0  0  0  0  0  0  0  0
    5.4890    2.3991    0.0780 N   0  0  0  0  0  0  0  0  0  0  0  0
    2.1825    0.5967    0.0381 C   0  0  0  0  0  0  0  0  0  0  0  0
    2.1129   -0.7995    0.0532 C   0  0  0  0  0  0  0  0  0  0  0  0
    3.5140   -1.4053    0.0742 C   0  0  0  0  0  0  0  0  0  0  0  0
    5.7462   -0.0680    0.0640 C   0  0  2  0  0  3  0  0  0  0  0  0
    6.6322   -1.1697    0.0602 C   0  0  0  0  0  0  0  0  0  0  0  0
    6.2452   -2.1948    0.0603 H   0  0  0  0  0  0  0  0  0  0  0  0
    8.0155   -0.9577    0.0602 C   0  0  0  0  0  0  0  0  0  0  0  0
    8.6868   -1.8295    0.0600 H   0  0  0  0  0  0  0  0  0  0  0  0
    8.5528    0.3441    0.0609 C   0  0  0  0  0  0  0  0  0  0  0  0
    9.6423    0.4932    0.0587 H   0  0  0  0  0  0  0  0  0  0  0  0
    7.6910    1.4417    0.0653 C   0  0  0  0  0  0  0  0  0  0  0  0
    8.0612    2.4768    0.0659 H   0  0  0  0  0  0  0  0  0  0  0  0
    6.2865    1.2714    0.0699 C   0  0  0  0  0  0  0  0  0  0  0  0
    4.1840    2.2329    0.0803 C   0  0  0  0  0  0  0  0  0  0  0  0
    3.5317    3.1235    0.0754 H   0  0  0  0  0  0  0  0  0  0  0  0
    3.5597    0.9527    0.0712 C   0  0  0  0  0  0  0  0  0  0  0  0
    3.7303   -2.2282   -1.2078 C   0  0  0  0  0  0  0  0  0  0  0  0
    3.6049   -1.5866   -2.1011 H   0  0  0  0  0  0  0  0  0  0  0  0
    2.9552   -3.0183   -1.2437 H   0  0  0  0  0  0  0  0  0  0  0  0
    4.7290   -2.7027   -1.2428 H   0  0  0  0  0  0  0  0  0  0  0  0
    3.7131   -2.2195    1.3640 C   0  0  0  0  0  0  0  0  0  0  0  0
    2.9389   -3.0107    1.3988 H   0  0  0  0  0  0  0  0  0  0  0  0
    3.5821   -1.5704    2.2512 H   0  0  0  0  0  0  0  0  0  0  0  0
    4.7111   -2.6949    1.4126 H   0  0  0  0  0  0  0  0  0  0  0  0
  1  5  1  0  0  0  0
  4 18  1  0  0  0  0
  5  6  2  0  0  0  0
  5 20  1  0  0  0  0
  6  2  1  0  0  0  0
  6  7  1  0  0  0  0
  7  3  1  0  0  0  0
  7 25  1  0  0  0  0
  8  9  1  1  0  0  0
  8 17  1  0  0  0  0
  8  3  1  0  0  0  0
  9 10  1  0  0  0  0
 11  9  2  0  0  0  0
 11 13  1  0  0  0  0
 12 11  1  0  0  0  0
 13 15  2  0  0  0  0
 14 13  1  0  0  0  0
 15 16  1  0  0  0  0
 15 17  1  0  0  0  0
 17  4  2  0  0  0  0
 19 18  1  0  0  0  0
 20  3  1  0  0  0  0
 20 18  2  0  0  0  0
 21  7  1  0  0  0  0
 22 21  1  0  0  0  0
 23 21  1  0  0  0  0
 24 21  1  0  0  0  0
 25 26  1  0  0  0  0
 25 28  1  0  0  0  0
 25 27  1  0  0  0  0
M  END
