1,2
 OpenBabel05122313063D

 18 18  0  0  0  0  0  0  0  0999 V2000
    1.3968   -1.9187    0.2243 S   0  0  0  0  0  1  0  0  0  0  0  0
    1.9080    1.4091   -0.2515 S   0  0  0  0  0  1  0  0  0  0  0  0
    4.4681   -2.0468    0.0863 S   0  0  0  0  0  0  0  0  0  0  0  0
    2.9600   -1.1446    0.0479 C   0  0  0  0  0  0  0  0  0  0  0  0
    3.2038    0.2066   -0.1437 C   0  0  0  0  0  0  0  0  0  0  0  0
    4.6083    0.5292   -0.2589 C   0  0  0  0  0  0  0  0  0  0  0  0
    5.4231   -0.5897   -0.1486 C   0  0  0  0  0  0  0  0  0  0  0  0
    6.9176   -0.6820   -0.1768 C   0  0  0  0  0  0  0  0  0  0  0  0
    5.0902    1.9469   -0.4295 C   0  0  0  0  0  0  0  0  0  0  0  0
    5.0735    2.7478    0.8823 C   0  0  0  0  0  0  0  0  0  0  0  0
    7.3545    0.2719   -0.5344 H   0  0  0  0  0  0  0  0  0  0  0  0
    7.3548   -0.8869    0.8266 H   0  0  0  0  0  0  0  0  0  0  0  0
    7.2756   -1.4863   -0.8553 H   0  0  0  0  0  0  0  0  0  0  0  0
    6.1125    1.9539   -0.8647 H   0  0  0  0  0  0  0  0  0  0  0  0
    4.4297    2.4524   -1.1684 H   0  0  0  0  0  0  0  0  0  0  0  0
    4.0490    2.7635    1.3063 H   0  0  0  0  0  0  0  0  0  0  0  0
    5.7457    2.2891    1.6365 H   0  0  0  0  0  0  0  0  0  0  0  0
    5.3963    3.7981    0.7219 H   0  0  0  0  0  0  0  0  0  0  0  0
  2  5  1  0  0  0  0
  4  3  1  0  0  0  0
  4  1  1  0  0  0  0
  5  4  2  0  0  0  0
  6  7  2  0  0  0  0
  6  5  1  0  0  0  0
  7  3  1  0  0  0  0
  8  7  1  0  0  0  0
  8 12  1  0  0  0  0
  9  6  1  0  0  0  0
  9 10  1  0  0  0  0
 10 16  1  0  0  0  0
 10 17  1  0  0  0  0
 11  8  1  0  0  0  0
 13  8  1  0  0  0  0
 14  9  1  0  0  0  0
 15  9  1  0  0  0  0
 18 10  1  0  0  0  0
M  END
