1,2
 OpenBabel05122313063D

 18 17  0  0  0  0  0  0  0  0999 V2000
   -1.6480   -1.6154   -0.1099 S   0  0  1  0  0  3  0  0  0  0  0  0
   -1.5943    1.6078   -0.2391 S   0  0  2  0  0  3  0  0  0  0  0  0
   -1.5204   -2.8596   -0.9530 O   0  0  0  0  0  1  0  0  0  0  0  0
   -1.6330    2.4336   -1.5003 O   0  0  0  0  0  1  0  0  0  0  0  0
   -3.0951   -0.6494   -0.7633 C   0  0  0  0  0  0  0  0  0  0  0  0
   -3.2154    0.6948   -0.0807 C   0  0  0  0  0  0  0  0  0  0  0  0
   -2.2793   -2.1755    1.4991 C   0  0  0  0  0  0  0  0  0  0  0  0
   -1.7120    2.7649    1.1496 C   0  0  0  0  0  0  0  0  0  0  0  0
   -2.8462   -0.5571   -1.8407 H   0  0  0  0  0  0  0  0  0  0  0  0
   -3.9901   -1.2910   -0.6413 H   0  0  0  0  0  0  0  0  0  0  0  0
   -3.4459    0.6133    1.0004 H   0  0  0  0  0  0  0  0  0  0  0  0
   -3.9507    1.3587   -0.5780 H   0  0  0  0  0  0  0  0  0  0  0  0
   -3.1601   -2.8114    1.2919 H   0  0  0  0  0  0  0  0  0  0  0  0
   -1.4505   -2.7630    1.9355 H   0  0  0  0  0  0  0  0  0  0  0  0
   -2.4787   -1.3115    2.1587 H   0  0  0  0  0  0  0  0  0  0  0  0
   -1.7682    2.1841    2.0895 H   0  0  0  0  0  0  0  0  0  0  0  0
   -0.7501    3.3136    1.1271 H   0  0  0  0  0  0  0  0  0  0  0  0
   -2.5779    3.4240    0.9541 H   0  0  0  0  0  0  0  0  0  0  0  0
  1  3  1  6  0  0  0
  1  7  1  0  0  0  0
  2  4  1  6  0  0  0
  2  6  1  0  0  0  0
  2  8  1  0  0  0  0
  5 10  1  0  0  0  0
  5  1  1  0  0  0  0
  5  6  1  0  0  0  0
  6 11  1  0  0  0  0
  7 14  1  0  0  0  0
  7 15  1  0  0  0  0
  8 16  1  0  0  0  0
  9  5  1  0  0  0  0
 12  6  1  0  0  0  0
 13  7  1  0  0  0  0
 17  8  1  0  0  0  0
 18  8  1  0  0  0  0
M  END
