1,2
 OpenBabel05122313063D

 25 26  0  0  0  0  0  0  0  0999 V2000
   -0.2445   -1.3828   -0.9437 S   0  0  0  0  0  1  0  0  0  0  0  0
   -0.5061    1.2989   -0.0122 S   0  0  0  0  0  1  0  0  0  0  0  0
   -1.5621   -0.1425   -0.5679 C   0  0  0  0  0  0  0  0  0  0  0  0
   -2.4940    0.1676   -1.7538 C   0  0  0  0  0  0  0  0  0  0  0  0
   -3.8569    0.6146   -1.1456 C   0  0  0  0  0  0  0  0  0  0  0  0
   -3.8307   -0.1085    0.2001 C   0  0  0  0  0  0  0  0  0  0  0  0
   -2.5267   -0.5337    0.5234 C   0  0  0  0  0  0  0  0  0  0  0  0
   -2.2604   -1.1903    1.7327 C   0  0  0  0  0  0  0  0  0  0  0  0
   -3.3182   -1.4240    2.6235 C   0  0  0  0  0  0  0  0  0  0  0  0
   -4.6248   -1.0015    2.3070 C   0  0  0  0  0  0  0  0  0  0  0  0
   -4.8863   -0.3401    1.0949 C   0  0  0  0  0  0  0  0  0  0  0  0
   -5.0429    0.1959   -2.0257 C   0  0  0  0  0  0  0  0  0  0  0  0
   -3.8868    2.1412   -0.9121 C   0  0  0  0  0  0  0  0  0  0  0  0
   -2.6434   -0.7834   -2.3096 H   0  0  0  0  0  0  0  0  0  0  0  0
   -2.0479    0.9028   -2.4509 H   0  0  0  0  0  0  0  0  0  0  0  0
   -1.2323   -1.5193    1.9499 H   0  0  0  0  0  0  0  0  0  0  0  0
   -3.1306   -1.9469    3.5743 H   0  0  0  0  0  0  0  0  0  0  0  0
   -5.4476   -1.1967    3.0122 H   0  0  0  0  0  0  0  0  0  0  0  0
   -5.9105   -0.0152    0.8516 H   0  0  0  0  0  0  0  0  0  0  0  0
   -5.0714   -0.9039   -2.1636 H   0  0  0  0  0  0  0  0  0  0  0  0
   -4.9731    0.6687   -3.0274 H   0  0  0  0  0  0  0  0  0  0  0  0
   -6.0086    0.5097   -1.5777 H   0  0  0  0  0  0  0  0  0  0  0  0
   -3.8629    2.6840   -1.8802 H   0  0  0  0  0  0  0  0  0  0  0  0
   -3.0134    2.4680   -0.3133 H   0  0  0  0  0  0  0  0  0  0  0  0
   -4.8087    2.4385   -0.3711 H   0  0  0  0  0  0  0  0  0  0  0  0
  1  3  1  0  0  0  0
  3  2  1  0  0  0  0
  3  7  1  0  0  0  0
  4  5  1  0  0  0  0
  4  3  1  0  0  0  0
  5 13  1  0  0  0  0
  5  6  1  0  0  0  0
  6  7  2  0  0  0  0
  6 11  1  0  0  0  0
  7  8  1  0  0  0  0
  8 16  1  0  0  0  0
  8  9  2  0  0  0  0
  9 17  1  0  0  0  0
 10  9  1  0  0  0  0
 10 18  1  0  0  0  0
 11 10  2  0  0  0  0
 12 22  1  0  0  0  0
 12  5  1  0  0  0  0
 13 25  1  0  0  0  0
 13 24  1  0  0  0  0
 14  4  1  0  0  0  0
 15  4  1  0  0  0  0
 19 11  1  0  0  0  0
 20 12  1  0  0  0  0
 21 12  1  0  0  0  0
 23 13  1  0  0  0  0
M  END
