1,2
 OpenBabel05122313063D

 14 13  0  0  0  0  0  0  0  0999 V2000
   -2.8281   -0.7277   -0.9583 S   0  0  0  0  0  1  0  0  0  0  0  0
   -0.2775   -2.9820   -0.7587 S   0  0  0  0  0  1  0  0  0  0  0  0
   -4.1329   -3.3721    1.6225 O   0  0  0  0  0  0  0  0  0  0  0  0
   -5.4303   -3.4259   -0.2213 O   0  0  0  0  0  0  0  0  0  0  0  0
   -3.1218   -2.4003   -1.6276 C   0  0  0  0  0  0  0  0  0  0  0  0
   -3.0703   -3.5275   -0.5794 C   0  0  0  0  0  0  0  0  0  0  0  0
   -1.7324   -3.6001    0.1781 C   0  0  0  0  0  0  0  0  0  0  0  0
   -4.2260   -3.4290    0.4101 C   0  0  0  0  0  0  0  0  0  0  0  0
   -6.0932   -3.3360    0.4973 H   0  0  0  0  0  0  0  0  0  0  0  0
   -4.1281   -2.3676   -2.0899 H   0  0  0  0  0  0  0  0  0  0  0  0
   -2.3699   -2.6209   -2.4111 H   0  0  0  0  0  0  0  0  0  0  0  0
   -3.2349   -4.4735   -1.1455 H   0  0  0  0  0  0  0  0  0  0  0  0
   -1.5011   -4.6516    0.4437 H   0  0  0  0  0  0  0  0  0  0  0  0
   -1.8263   -3.0461    1.1318 H   0  0  0  0  0  0  0  0  0  0  0  0
  2  7  1  0  0  0  0
  4  8  1  0  0  0  0
  4  9  1  0  0  0  0
  5  1  1  0  0  0  0
  5  6  1  0  0  0  0
  6  7  1  0  0  0  0
  6  8  1  0  0  0  0
  7 13  1  0  0  0  0
  7 14  1  0  0  0  0
  8  3  2  0  0  0  0
 10  5  1  0  0  0  0
 11  5  1  0  0  0  0
 12  6  1  0  0  0  0
M  END
