1,22
 OpenBabel05122313063D

 38 39  0  0  1  0  0  0  0  0999 V2000
   -0.7857    0.5330    1.7880 S   0  0  0  0  0  1  0  0  0  0  0  0
   -0.9666    2.7452   -0.3317 S   0  0  0  0  0  0  0  0  0  0  0  0
   -1.7082    1.3893    0.6615 C   0  0  1  0  0  3  0  0  0  0  0  0
   -2.9948    1.1595    0.3790 N   0  0  0  0  0  0  0  0  0  0  0  0
   -3.8192    0.2143    1.1546 C   0  0  0  0  0  0  0  0  0  0  0  0
   -5.0503    0.9320    1.7158 C   0  0  0  0  0  0  0  0  0  0  0  0
   -5.8580    1.6116    0.6036 C   0  0  0  0  0  0  0  0  0  0  0  0
   -4.9595    2.5357   -0.2273 C   0  0  0  0  0  0  0  0  0  0  0  0
   -3.7264    1.7828   -0.7340 C   0  0  0  0  0  0  0  0  0  0  0  0
   -3.1779   -0.2179    1.9431 H   0  0  0  0  0  0  0  0  0  0  0  0
   -4.1032   -0.6090    0.4642 H   0  0  0  0  0  0  0  0  0  0  0  0
   -5.6695    0.1900    2.2600 H   0  0  0  0  0  0  0  0  0  0  0  0
   -4.7215    1.6863    2.4636 H   0  0  0  0  0  0  0  0  0  0  0  0
   -6.2947    0.8332   -0.0605 H   0  0  0  0  0  0  0  0  0  0  0  0
   -6.7106    2.1799    1.0282 H   0  0  0  0  0  0  0  0  0  0  0  0
   -5.5071    2.9516   -1.0977 H   0  0  0  0  0  0  0  0  0  0  0  0
   -4.6244    3.3984    0.3883 H   0  0  0  0  0  0  0  0  0  0  0  0
   -4.0142    0.9552   -1.4204 H   0  0  0  0  0  0  0  0  0  0  0  0
   -3.0463    2.4438   -1.3050 H   0  0  0  0  0  0  0  0  0  0  0  0
    0.9668    2.7451    0.3320 S   0  0  0  0  0  0  0  0  0  0  0  0
    1.7082    1.3893   -0.6613 C   0  0  2  0  0  3  0  0  0  0  0  0
    0.7856    0.5331   -1.7878 S   0  0  0  0  0  1  0  0  0  0  0  0
    2.9949    1.1594   -0.3790 N   0  0  0  0  0  0  0  0  0  0  0  0
    3.8192    0.2144   -1.1549 C   0  0  0  0  0  0  0  0  0  0  0  0
    5.0501    0.9321   -1.7161 C   0  0  0  0  0  0  0  0  0  0  0  0
    5.8581    1.6115   -0.6040 C   0  0  0  0  0  0  0  0  0  0  0  0
    4.9596    2.5355    0.2273 C   0  0  0  0  0  0  0  0  0  0  0  0
    3.7267    1.7825    0.7340 C   0  0  0  0  0  0  0  0  0  0  0  0
    4.0145    0.9548    1.4202 H   0  0  0  0  0  0  0  0  0  0  0  0
    3.0466    2.4434    1.3052 H   0  0  0  0  0  0  0  0  0  0  0  0
    5.5073    2.9512    1.0976 H   0  0  0  0  0  0  0  0  0  0  0  0
    4.6245    3.3984   -0.3881 H   0  0  0  0  0  0  0  0  0  0  0  0
    6.2948    0.8330    0.0599 H   0  0  0  0  0  0  0  0  0  0  0  0
    6.7106    2.1799   -1.0285 H   0  0  0  0  0  0  0  0  0  0  0  0
    5.6693    0.1903   -2.2606 H   0  0  0  0  0  0  0  0  0  0  0  0
    4.7212    1.6865   -2.4638 H   0  0  0  0  0  0  0  0  0  0  0  0
    3.1777   -0.2177   -1.9434 H   0  0  0  0  0  0  0  0  0  0  0  0
    4.1033   -0.6091   -0.4646 H   0  0  0  0  0  0  0  0  0  0  0  0
  2 20  1  0  0  0  0
  2  3  1  0  0  0  0
  3  1  1  6  0  0  0
  4  3  1  0  0  0  0
  4  5  1  0  0  0  0
  5  6  1  0  0  0  0
  5 10  1  0  0  0  0
  6 12  1  0  0  0  0
  6 13  1  0  0  0  0
  7 15  1  0  0  0  0
  7  6  1  0  0  0  0
  8 17  1  0  0  0  0
  8  7  1  0  0  0  0
  9  8  1  0  0  0  0
  9  4  1  0  0  0  0
 11  5  1  0  0  0  0
 14  7  1  0  0  0  0
 16  8  1  0  0  0  0
 18  9  1  0  0  0  0
 19  9  1  0  0  0  0
 21 22  1  1  0  0  0
 21 23  1  0  0  0  0
 21 20  1  0  0  0  0
 23 28  1  0  0  0  0
 24 38  1  0  0  0  0
 24 23  1  0  0  0  0
 25 24  1  0  0  0  0
 25 26  1  0  0  0  0
 26 33  1  0  0  0  0
 26 27  1  0  0  0  0
 27 28  1  0  0  0  0
 27 31  1  0  0  0  0
 28 30  1  0  0  0  0
 28 29  1  0  0  0  0
 32 27  1  0  0  0  0
 34 26  1  0  0  0  0
 35 25  1  0  0  0  0
 36 25  1  0  0  0  0
 37 24  1  0  0  0  0
M  END
