1,2
 OpenBabel05122313063D

 11 10  0  0  0  0  0  0  0  0999 V2000
   -1.7019   -0.0177   -1.5861 S   0  0  0  0  0  1  0  0  0  0  0  0
    0.2922   -2.0906   -1.4481 S   0  0  0  0  0  1  0  0  0  0  0  0
   -3.9588   -2.3049   -1.4561 S   0  0  0  0  0  0  0  0  0  0  0  0
   -4.2268   -1.9896   -0.0275 O   0  0  0  0  0  0  0  0  0  0  0  0
   -4.4224   -1.3755   -2.5123 O   0  0  0  0  0  0  0  0  0  0  0  0
   -2.3165   -2.7382   -1.6321 N   0  0  0  0  0  0  0  0  0  0  0  0
   -1.4441   -1.7792   -1.6199 C   0  0  0  0  0  0  0  0  0  0  0  0
   -4.6772   -3.9223   -1.7878 C   0  0  0  0  0  0  0  0  0  0  0  0
   -4.4139   -4.2139   -2.8201 H   0  0  0  0  0  0  0  0  0  0  0  0
   -5.7699   -3.7989   -1.6758 H   0  0  0  0  0  0  0  0  0  0  0  0
   -4.2765   -4.6409   -1.0517 H   0  0  0  0  0  0  0  0  0  0  0  0
  3  4  2  0  0  0  0
  5  3  2  0  0  0  0
  6  7  2  0  0  0  0
  6  3  1  0  0  0  0
  7  1  1  0  0  0  0
  7  2  1  0  0  0  0
  8 10  1  0  0  0  0
  8  3  1  0  0  0  0
  8 11  1  0  0  0  0
  9  8  1  0  0  0  0
M  END
