1,2
 OpenBabel05122313063D

 35 36  0  0  0  0  0  0  0  0999 V2000
   -1.1902    1.0475    0.1361 S   0  0  2  0  0  3  0  0  0  0  0  0
    1.7600   -0.0710   -1.1723 S   0  0  2  0  0  3  0  0  0  0  0  0
   -0.8484    1.9665    1.2858 O   0  0  0  0  0  1  0  0  0  0  0  0
    2.5013   -0.9460   -2.1368 O   0  0  0  0  0  1  0  0  0  0  0  0
   -0.9966    2.0730   -1.3823 C   0  0  0  0  0  0  0  0  0  0  0  0
   -1.3983    1.4827   -2.2311 H   0  0  0  0  0  0  0  0  0  0  0  0
   -1.6605    2.9377   -1.1856 H   0  0  0  0  0  0  0  0  0  0  0  0
    0.4566    2.4942   -1.5700 C   0  0  0  0  0  0  0  0  0  0  0  0
    0.4743    3.3696   -2.2531 H   0  0  0  0  0  0  0  0  0  0  0  0
    0.8642    2.8628   -0.6039 H   0  0  0  0  0  0  0  0  0  0  0  0
    1.3494    1.4243   -2.1802 C   0  0  0  0  0  0  0  0  0  0  0  0
    2.3516    1.8085   -2.4539 H   0  0  0  0  0  0  0  0  0  0  0  0
    0.8983    0.9555   -3.0793 H   0  0  0  0  0  0  0  0  0  0  0  0
   -2.9862    0.8231    0.0783 C   0  0  0  0  0  0  0  0  0  0  0  0
   -3.7504    1.6592    0.8983 C   0  0  0  0  0  0  0  0  0  0  0  0
   -3.2430    2.3599    1.5781 H   0  0  0  0  0  0  0  0  0  0  0  0
   -5.1490    1.5530    0.8348 C   0  0  0  0  0  0  0  0  0  0  0  0
   -5.7732    2.1934    1.4758 H   0  0  0  0  0  0  0  0  0  0  0  0
   -5.7464    0.6279   -0.0355 C   0  0  0  0  0  0  0  0  0  0  0  0
   -6.8428    0.5456   -0.0779 H   0  0  0  0  0  0  0  0  0  0  0  0
   -4.9532   -0.2065   -0.8431 C   0  0  0  0  0  0  0  0  0  0  0  0
   -5.4255   -0.9451   -1.5076 H   0  0  0  0  0  0  0  0  0  0  0  0
   -3.5556   -0.1226   -0.7855 C   0  0  0  0  0  0  0  0  0  0  0  0
   -2.9178   -0.8002   -1.3730 H   0  0  0  0  0  0  0  0  0  0  0  0
    2.9444    0.6249    0.0144 C   0  0  0  0  0  0  0  0  0  0  0  0
    2.5102    1.2956    1.1685 C   0  0  0  0  0  0  0  0  0  0  0  0
    1.4385    1.4131    1.3980 H   0  0  0  0  0  0  0  0  0  0  0  0
    3.4853    1.8068    2.0391 C   0  0  0  0  0  0  0  0  0  0  0  0
    3.1690    2.3367    2.9499 H   0  0  0  0  0  0  0  0  0  0  0  0
    4.8507    1.6251    1.7631 C   0  0  0  0  0  0  0  0  0  0  0  0
    5.6062    2.0179    2.4602 H   0  0  0  0  0  0  0  0  0  0  0  0
    5.2570    0.9297    0.6122 C   0  0  0  0  0  0  0  0  0  0  0  0
    6.3270    0.7725    0.4090 H   0  0  0  0  0  0  0  0  0  0  0  0
    4.2991    0.4191   -0.2761 C   0  0  0  0  0  0  0  0  0  0  0  0
    4.5744   -0.1529   -1.1751 H   0  0  0  0  0  0  0  0  0  0  0  0
  1  3  1  1  0  0  0
  2  4  1  6  0  0  0
  2 25  1  0  0  0  0
  5  7  1  0  0  0  0
  5  1  1  0  0  0  0
  6  5  1  0  0  0  0
  8  5  1  0  0  0  0
  8 10  1  0  0  0  0
  9  8  1  0  0  0  0
 11  8  1  0  0  0  0
 11  2  1  0  0  0  0
 12 11  1  0  0  0  0
 13 11  1  0  0  0  0
 14  1  1  0  0  0  0
 14 15  1  0  0  0  0
 15 16  1  0  0  0  0
 17 15  2  0  0  0  0
 17 18  1  0  0  0  0
 19 17  1  0  0  0  0
 20 19  1  0  0  0  0
 21 23  1  0  0  0  0
 21 19  2  0  0  0  0
 22 21  1  0  0  0  0
 23 14  2  0  0  0  0
 24 23  1  0  0  0  0
 25 26  1  0  0  0  0
 26 27  1  0  0  0  0
 26 28  2  0  0  0  0
 28 29  1  0  0  0  0
 30 28  1  0  0  0  0
 30 31  1  0  0  0  0
 32 30  2  0  0  0  0
 33 32  1  0  0  0  0
 34 25  2  0  0  0  0
 34 32  1  0  0  0  0
 35 34  1  0  0  0  0
M  END
