1,2
 OpenBabel05122313063D

 38 38  0  0  0  0  0  0  0  0999 V2000
    1.4994   -1.7953   -0.4062 S   0  0  0  0  0  1  0  0  0  0  0  0
    1.9512    0.9900   -0.9253 S   0  0  0  0  0  1  0  0  0  0  0  0
    2.6044   -0.6089   -1.0202 C   0  0  0  0  0  3  0  0  0  0  0  0
    3.8227   -0.9033   -1.5219 N   0  0  0  0  0  0  0  0  0  0  0  0
    4.7143    0.1716   -1.9605 C   0  0  0  0  0  0  0  0  0  0  0  0
    5.4592    0.8373   -0.8002 C   0  0  0  0  0  0  0  0  0  0  0  0
    6.1811    1.9263   -1.3411 O   0  0  0  0  0  0  0  0  0  0  0  0
    6.5437    2.9004   -0.3855 C   0  0  0  0  0  0  0  0  0  0  0  0
    7.5059    2.4172    0.6903 C   0  0  0  0  0  0  0  0  0  0  0  0
    8.7635    2.1345    0.1015 O   0  0  0  0  0  0  0  0  0  0  0  0
    9.6454    1.4009    0.9228 C   0  0  0  0  0  0  0  0  0  0  0  0
    9.6171   -0.0946    0.6458 C   0  0  0  0  0  0  0  0  0  0  0  0
    8.3699   -0.6543    1.0145 O   0  0  0  0  0  0  0  0  0  0  0  0
    8.3478   -2.0585    0.8701 C   0  0  0  0  0  0  0  0  0  0  0  0
    6.9303   -2.5824    0.9618 C   0  0  0  0  0  0  0  0  0  0  0  0
    6.2383   -2.2567   -0.2263 O   0  0  0  0  0  0  0  0  0  0  0  0
    4.9342   -2.7929   -0.2936 C   0  0  0  0  0  0  0  0  0  0  0  0
    4.2609   -2.2981   -1.5688 C   0  0  0  0  0  0  0  0  0  0  0  0
    5.4376   -0.2493   -2.6856 H   0  0  0  0  0  0  0  0  0  0  0  0
    4.1095    0.9413   -2.4844 H   0  0  0  0  0  0  0  0  0  0  0  0
    6.1280    0.0956   -0.3114 H   0  0  0  0  0  0  0  0  0  0  0  0
    4.7071    1.1878   -0.0515 H   0  0  0  0  0  0  0  0  0  0  0  0
    7.0219    3.7259   -0.9522 H   0  0  0  0  0  0  0  0  0  0  0  0
    5.6359    3.3112    0.1261 H   0  0  0  0  0  0  0  0  0  0  0  0
    7.0932    1.5191    1.2025 H   0  0  0  0  0  0  0  0  0  0  0  0
    7.5994    3.2229    1.4632 H   0  0  0  0  0  0  0  0  0  0  0  0
   10.6784    1.7570    0.7119 H   0  0  0  0  0  0  0  0  0  0  0  0
    9.4473    1.5850    2.0057 H   0  0  0  0  0  0  0  0  0  0  0  0
   10.4527   -0.5782    1.2147 H   0  0  0  0  0  0  0  0  0  0  0  0
    9.8111   -0.2690   -0.4412 H   0  0  0  0  0  0  0  0  0  0  0  0
    8.7690   -2.3633   -0.1191 H   0  0  0  0  0  0  0  0  0  0  0  0
    8.9716   -2.5473    1.6606 H   0  0  0  0  0  0  0  0  0  0  0  0
    6.4209   -2.1499    1.8577 H   0  0  0  0  0  0  0  0  0  0  0  0
    6.9683   -3.6914    1.1036 H   0  0  0  0  0  0  0  0  0  0  0  0
    4.9673   -3.9117   -0.3136 H   0  0  0  0  0  0  0  0  0  0  0  0
    4.3178   -2.5007    0.5908 H   0  0  0  0  0  0  0  0  0  0  0  0
    3.3689   -2.9263   -1.7724 H   0  0  0  0  0  0  0  0  0  0  0  0
    4.9667   -2.4100   -2.4163 H   0  0  0  0  0  0  0  0  0  0  0  0
  3  2  1  0  0  0  0
  3  1  1  0  0  0  0
  4  3  1  0  0  0  0
  5  4  1  0  0  0  0
  5  6  1  0  0  0  0
  6 21  1  0  0  0  0
  6 22  1  0  0  0  0
  7  6  1  0  0  0  0
  7  8  1  0  0  0  0
  8 24  1  0  0  0  0
  8  9  1  0  0  0  0
  9 25  1  0  0  0  0
  9 26  1  0  0  0  0
 10  9  1  0  0  0  0
 10 11  1  0  0  0  0
 11 28  1  0  0  0  0
 12 11  1  0  0  0  0
 12 13  1  0  0  0  0
 12 29  1  0  0  0  0
 14 15  1  0  0  0  0
 14 13  1  0  0  0  0
 14 32  1  0  0  0  0
 15 34  1  0  0  0  0
 15 33  1  0  0  0  0
 16 15  1  0  0  0  0
 17 16  1  0  0  0  0
 17 36  1  0  0  0  0
 18  4  1  0  0  0  0
 18 17  1  0  0  0  0
 19  5  1  0  0  0  0
 20  5  1  0  0  0  0
 23  8  1  0  0  0  0
 27 11  1  0  0  0  0
 30 12  1  0  0  0  0
 31 14  1  0  0  0  0
 35 17  1  0  0  0  0
 37 18  1  0  0  0  0
 38 18  1  0  0  0  0
M  END
