1,2
 OpenBabel05122313063D

 26 26  0  0  1  0  0  0  0  0999 V2000
    0.0127   -0.3530   -2.0340 S   0  0  0  0  0  1  0  0  0  0  0  0
   -0.9882    0.3529    0.8380 S   0  0  0  0  0  1  0  0  0  0  0  0
   -2.3585    0.1591   -0.5224 C   0  0  1  0  0  0  0  0  0  0  0  0
   -3.0240   -1.1732   -0.2525 C   0  0  0  0  0  0  0  0  0  0  0  0
   -4.2726   -0.9267    0.2578 C   0  0  0  0  0  0  0  0  0  0  0  0
   -4.5029    0.5345    0.3229 C   0  0  0  0  0  0  0  0  0  0  0  0
   -3.3998    1.1940   -0.1534 C   0  0  0  0  0  0  0  0  0  0  0  0
   -1.7269    0.3331   -1.8845 C   0  0  0  0  0  0  0  0  0  0  0  0
   -2.3575   -2.4829   -0.5143 C   0  0  0  0  0  0  0  0  0  0  0  0
   -5.2941   -1.9254    0.7069 C   0  0  0  0  0  0  0  0  0  0  0  0
   -5.7717    1.1294    0.8501 C   0  0  0  0  0  0  0  0  0  0  0  0
   -3.1535    2.6622   -0.2670 C   0  0  0  0  0  0  0  0  0  0  0  0
   -2.3213   -0.1816   -2.6663 H   0  0  0  0  0  0  0  0  0  0  0  0
   -1.6528    1.4055   -2.1552 H   0  0  0  0  0  0  0  0  0  0  0  0
   -3.0245   -3.3343   -0.2781 H   0  0  0  0  0  0  0  0  0  0  0  0
   -2.0419   -2.5799   -1.5758 H   0  0  0  0  0  0  0  0  0  0  0  0
   -1.4289   -2.5939    0.0856 H   0  0  0  0  0  0  0  0  0  0  0  0
   -4.9474   -2.9667    0.5654 H   0  0  0  0  0  0  0  0  0  0  0  0
   -5.5405   -1.7978    1.7834 H   0  0  0  0  0  0  0  0  0  0  0  0
   -6.2509   -1.8093    0.1532 H   0  0  0  0  0  0  0  0  0  0  0  0
   -5.7562    2.2359    0.8296 H   0  0  0  0  0  0  0  0  0  0  0  0
   -6.6529    0.7940    0.2616 H   0  0  0  0  0  0  0  0  0  0  0  0
   -5.9613    0.8133    1.8986 H   0  0  0  0  0  0  0  0  0  0  0  0
   -3.9884    3.2527    0.1569 H   0  0  0  0  0  0  0  0  0  0  0  0
   -2.2237    2.9522    0.2712 H   0  0  0  0  0  0  0  0  0  0  0  0
   -3.0211    2.9896   -1.3227 H   0  0  0  0  0  0  0  0  0  0  0  0
  1  8  1  0  0  0  0
  3  4  1  0  0  0  0
  3  7  1  0  0  0  0
  3  2  1  1  0  0  0
  4  5  2  0  0  0  0
  5  6  1  0  0  0  0
  5 10  1  0  0  0  0
  6 11  1  0  0  0  0
  7  6  2  0  0  0  0
  8  3  1  0  0  0  0
  9 15  1  0  0  0  0
  9  4  1  0  0  0  0
  9 17  1  0  0  0  0
 10 19  1  0  0  0  0
 11 23  1  0  0  0  0
 12  7  1  0  0  0  0
 12 24  1  0  0  0  0
 12 25  1  0  0  0  0
 13  8  1  0  0  0  0
 14  8  1  0  0  0  0
 16  9  1  0  0  0  0
 18 10  1  0  0  0  0
 20 10  1  0  0  0  0
 21 11  1  0  0  0  0
 22 11  1  0  0  0  0
 26 12  1  0  0  0  0
M  END
