1,2
 OpenBabel05122313063D

 40 40  0  0  0  0  0  0  0  0999 V2000
   -1.1954    1.4421   -1.2400 S   0  0  0  0  0  1  0  0  0  0  0  0
   -1.5939   -1.5257    0.2645 S   0  0  0  0  0  1  0  0  0  0  0  0
   -2.6671    1.6305    0.1489 P   0  0  0  0  0  4  0  0  0  0  0  0
   -2.1503    2.0492    1.6197 O   0  0  0  0  0  0  0  0  0  0  0  0
   -3.6220    2.8829   -0.2545 O   0  0  0  0  0  0  0  0  0  0  0  0
   -3.6520    0.3480    0.3356 N   0  0  0  0  0  0  0  0  0  0  0  0
   -4.1654   -1.9194    0.2716 N   0  0  0  0  0  0  0  0  0  0  0  0
   -3.2410   -0.9050    0.2789 C   0  0  0  0  0  0  0  0  0  0  0  0
   -5.5686   -1.8992    0.3334 C   0  0  0  0  0  0  0  0  0  0  0  0
   -6.2362   -3.1291    0.1231 C   0  0  0  0  0  0  0  0  0  0  0  0
   -7.6321   -3.1996    0.1737 C   0  0  0  0  0  0  0  0  0  0  0  0
   -8.3921   -2.0475    0.4343 C   0  0  0  0  0  0  0  0  0  0  0  0
   -7.7301   -0.8290    0.6500 C   0  0  0  0  0  0  0  0  0  0  0  0
   -6.3318   -0.7406    0.6046 C   0  0  0  0  0  0  0  0  0  0  0  0
   -1.1070    3.0610    1.8178 C   0  0  0  0  0  0  0  0  0  0  0  0
   -0.1577    2.5044    2.8644 C   0  0  0  0  0  0  0  0  0  0  0  0
   -1.7782    4.3731    2.1973 C   0  0  0  0  0  0  0  0  0  0  0  0
   -4.2966    2.8769   -1.5547 C   0  0  0  0  0  0  0  0  0  0  0  0
   -5.7942    2.9362   -1.2969 C   0  0  0  0  0  0  0  0  0  0  0  0
   -3.7504    4.0441   -2.3637 C   0  0  0  0  0  0  0  0  0  0  0  0
   -3.7458   -2.8494    0.1939 H   0  0  0  0  0  0  0  0  0  0  0  0
   -5.6459   -4.0363   -0.0851 H   0  0  0  0  0  0  0  0  0  0  0  0
   -8.1299   -4.1667    0.0058 H   0  0  0  0  0  0  0  0  0  0  0  0
   -9.4901   -2.1015    0.4719 H   0  0  0  0  0  0  0  0  0  0  0  0
   -8.3112    0.0815    0.8637 H   0  0  0  0  0  0  0  0  0  0  0  0
   -5.8110    0.2074    0.7796 H   0  0  0  0  0  0  0  0  0  0  0  0
   -0.5626    3.1759    0.8538 H   0  0  0  0  0  0  0  0  0  0  0  0
   -4.0474    1.9217   -2.0689 H   0  0  0  0  0  0  0  0  0  0  0  0
   -0.6956    2.3017    3.8125 H   0  0  0  0  0  0  0  0  0  0  0  0
    0.6565    3.2293    3.0636 H   0  0  0  0  0  0  0  0  0  0  0  0
    0.3008    1.5651    2.4973 H   0  0  0  0  0  0  0  0  0  0  0  0
   -2.4812    4.6915    1.4036 H   0  0  0  0  0  0  0  0  0  0  0  0
   -2.3446    4.2620    3.1441 H   0  0  0  0  0  0  0  0  0  0  0  0
   -1.0166    5.1665    2.3362 H   0  0  0  0  0  0  0  0  0  0  0  0
   -6.1259    2.0459   -0.7290 H   0  0  0  0  0  0  0  0  0  0  0  0
   -6.3486    2.9639   -2.2563 H   0  0  0  0  0  0  0  0  0  0  0  0
   -6.0508    3.8457   -0.7169 H   0  0  0  0  0  0  0  0  0  0  0  0
   -4.2225    4.0766   -3.3659 H   0  0  0  0  0  0  0  0  0  0  0  0
   -2.6553    3.9431   -2.4948 H   0  0  0  0  0  0  0  0  0  0  0  0
   -3.9580    5.0033   -1.8473 H   0  0  0  0  0  0  0  0  0  0  0  0
  1  3  1  0  0  0  0
  2  8  1  0  0  0  0
  3  6  1  0  0  0  0
  3  4  1  0  0  0  0
  4 15  1  0  0  0  0
  5  3  1  0  0  0  0
  7  8  1  0  0  0  0
  7  9  1  0  0  0  0
  8  6  2  0  0  0  0
  9 14  1  0  0  0  0
 10 11  1  0  0  0  0
 10  9  2  0  0  0  0
 11 12  2  0  0  0  0
 12 24  1  0  0  0  0
 12 13  1  0  0  0  0
 13 25  1  0  0  0  0
 14 13  2  0  0  0  0
 14 26  1  0  0  0  0
 15 17  1  0  0  0  0
 15 16  1  0  0  0  0
 16 30  1  0  0  0  0
 16 29  1  0  0  0  0
 17 34  1  0  0  0  0
 17 33  1  0  0  0  0
 18 19  1  0  0  0  0
 18  5  1  0  0  0  0
 19 35  1  0  0  0  0
 19 37  1  0  0  0  0
 20 40  1  0  0  0  0
 20 18  1  0  0  0  0
 21  7  1  0  0  0  0
 22 10  1  0  0  0  0
 23 11  1  0  0  0  0
 27 15  1  0  0  0  0
 28 18  1  0  0  0  0
 31 16  1  0  0  0  0
 32 17  1  0  0  0  0
 36 19  1  0  0  0  0
 38 20  1  0  0  0  0
 39 20  1  0  0  0  0
M  END
