1,2
 OpenBabel05122313063D

 25 24  0  0  0  0  0  0  0  0999 V2000
   -0.7196    0.0062   -1.4067 S   0  0  0  0  0  1  0  0  0  0  0  0
   -0.7060    0.1379    1.4362 S   0  0  0  0  0  1  0  0  0  0  0  0
   -3.4424    0.1667    0.0653 P   0  0  0  0  0  4  0  0  0  0  0  0
   -1.6479    0.1293    0.0153 C   0  0  0  0  0  3  0  0  0  0  0  0
   -4.0865   -1.4529    0.6337 C   0  0  0  0  0  0  0  0  0  0  0  0
   -3.6589   -2.6201   -0.2572 C   0  0  0  0  0  0  0  0  0  0  0  0
   -4.0456    0.5277   -1.6224 C   0  0  0  0  0  0  0  0  0  0  0  0
   -5.5438    0.3225   -1.8602 C   0  0  0  0  0  0  0  0  0  0  0  0
   -3.9316    1.4482    1.2799 C   0  0  0  0  0  0  0  0  0  0  0  0
   -5.3917    1.4517    1.7383 C   0  0  0  0  0  0  0  0  0  0  0  0
   -3.6999   -1.5653    1.6694 H   0  0  0  0  0  0  0  0  0  0  0  0
   -5.1913   -1.3670    0.7068 H   0  0  0  0  0  0  0  0  0  0  0  0
   -2.5557   -2.6857   -0.3328 H   0  0  0  0  0  0  0  0  0  0  0  0
   -4.0280   -3.5742    0.1661 H   0  0  0  0  0  0  0  0  0  0  0  0
   -4.0660   -2.5321   -1.2839 H   0  0  0  0  0  0  0  0  0  0  0  0
   -3.4293   -0.1154   -2.2874 H   0  0  0  0  0  0  0  0  0  0  0  0
   -3.7264    1.5699   -1.8346 H   0  0  0  0  0  0  0  0  0  0  0  0
   -5.8578   -0.7222   -1.6673 H   0  0  0  0  0  0  0  0  0  0  0  0
   -6.1663    0.9901   -1.2342 H   0  0  0  0  0  0  0  0  0  0  0  0
   -5.7827    0.5458   -2.9180 H   0  0  0  0  0  0  0  0  0  0  0  0
   -3.6338    2.4143    0.8191 H   0  0  0  0  0  0  0  0  0  0  0  0
   -3.2341    1.2866    2.1312 H   0  0  0  0  0  0  0  0  0  0  0  0
   -5.5418    2.2602    2.4801 H   0  0  0  0  0  0  0  0  0  0  0  0
   -6.0973    1.6346    0.9053 H   0  0  0  0  0  0  0  0  0  0  0  0
   -5.6756    0.5012    2.2307 H   0  0  0  0  0  0  0  0  0  0  0  0
  1  4  1  0  0  0  0
  3  5  1  0  0  0  0
  3  9  1  0  0  0  0
  4  3  1  0  0  0  0
  4  2  1  0  0  0  0
  5 12  1  0  0  0  0
  5 11  1  0  0  0  0
  6 14  1  0  0  0  0
  6  5  1  0  0  0  0
  7  3  1  0  0  0  0
  8 18  1  0  0  0  0
  8  7  1  0  0  0  0
  8 19  1  0  0  0  0
  9 10  1  0  0  0  0
  9 22  1  0  0  0  0
 10 25  1  0  0  0  0
 10 23  1  0  0  0  0
 13  6  1  0  0  0  0
 15  6  1  0  0  0  0
 16  7  1  0  0  0  0
 17  7  1  0  0  0  0
 20  8  1  0  0  0  0
 21  9  1  0  0  0  0
 24 10  1  0  0  0  0
M  END
