1,3
 OpenBabel05122313063D

 19 18  0  0  0  0  0  0  0  0999 V2000
    0.3700    1.5171   -0.0001 S   0  0  0  0  0  1  0  0  0  0  0  0
   -2.4736    2.9080    0.0000 S   0  0  0  0  0  0  0  0  0  0  0  0
    0.0432   -1.3944    0.0001 S   0  0  0  0  0  1  0  0  0  0  0  0
   -4.1809   -1.3696   -0.0001 O   0  0  0  0  0  0  0  0  0  0  0  0
   -6.1535   -0.2247   -0.0001 O   0  0  0  0  0  0  0  0  0  0  0  0
   -2.0540    0.2193   -0.0000 N   0  0  0  0  0  0  0  0  0  0  0  0
   -4.2545    0.9511   -0.0001 N   0  0  0  0  0  0  0  0  0  0  0  0
   -0.6800    0.1679   -0.0000 C   0  0  0  0  0  3  0  0  0  0  0  0
   -2.8974    1.3076   -0.0001 C   0  0  0  0  0  0  0  0  0  0  0  0
   -4.8159   -0.3176   -0.0001 C   0  0  0  0  0  0  0  0  0  0  0  0
   -6.8746   -1.4845   -0.0000 C   0  0  0  0  0  0  0  0  0  0  0  0
   -8.3540   -1.1685    0.0001 C   0  0  0  0  0  0  0  0  0  0  0  0
   -2.5527   -0.7031   -0.0001 H   0  0  0  0  0  0  0  0  0  0  0  0
   -4.8883    1.7553   -0.0001 H   0  0  0  0  0  0  0  0  0  0  0  0
   -6.5655   -2.0665   -0.8931 H   0  0  0  0  0  0  0  0  0  0  0  0
   -6.5653   -2.0665    0.8930 H   0  0  0  0  0  0  0  0  0  0  0  0
   -8.6388   -0.5869    0.8988 H   0  0  0  0  0  0  0  0  0  0  0  0
   -8.6390   -0.5869   -0.8986 H   0  0  0  0  0  0  0  0  0  0  0  0
   -8.9353   -2.1114    0.0001 H   0  0  0  0  0  0  0  0  0  0  0  0
  1  8  1  0  0  0  0
  4 10  2  0  0  0  0
  5 10  1  0  0  0  0
  5 11  1  0  0  0  0
  6  8  1  0  0  0  0
  7 14  1  0  0  0  0
  7 10  1  0  0  0  0
  7  9  1  0  0  0  0
  8  3  1  0  0  0  0
  9  6  1  0  0  0  0
  9  2  2  0  0  0  0
 11 12  1  0  0  0  0
 11 16  1  0  0  0  0
 12 19  1  0  0  0  0
 12 17  1  0  0  0  0
 13  6  1  0  0  0  0
 15 11  1  0  0  0  0
 18 12  1  0  0  0  0
M  END
