1,2
 OpenBabel05122313063D

 21 20  0  0  0  0  0  0  0  0999 V2000
    1.4434    1.3031   -1.6003 S   0  0  0  0  0  1  0  0  0  0  0  0
    1.5660   -1.4316    1.5458 S   0  0  0  0  0  1  0  0  0  0  0  0
    3.0770    1.4462   -0.3487 P   0  0  0  0  0  4  0  0  0  0  0  0
    3.2319   -1.3537    0.3284 P   0  0  0  0  0  4  0  0  0  0  0  0
    3.9152    0.0927    0.0101 N   0  0  0  0  0  2  0  0  0  0  0  0
    2.5831    2.2916    1.1996 C   0  0  0  0  0  0  0  0  0  0  0  0
    1.9492    1.5916    1.7786 H   0  0  0  0  0  0  0  0  0  0  0  0
    2.0128    3.2132    0.9776 H   0  0  0  0  0  0  0  0  0  0  0  0
    3.4934    2.5199    1.7884 H   0  0  0  0  0  0  0  0  0  0  0  0
    4.2646    2.5557   -1.1720 C   0  0  0  0  0  0  0  0  0  0  0  0
    5.1615    2.6660   -0.5317 H   0  0  0  0  0  0  0  0  0  0  0  0
    3.7950    3.5401   -1.3584 H   0  0  0  0  0  0  0  0  0  0  0  0
    4.5538    2.0937   -2.1346 H   0  0  0  0  0  0  0  0  0  0  0  0
    4.5211   -2.3316    1.1651 C   0  0  0  0  0  0  0  0  0  0  0  0
    5.4375   -2.3296    0.5434 H   0  0  0  0  0  0  0  0  0  0  0  0
    4.1635   -3.3656    1.3300 H   0  0  0  0  0  0  0  0  0  0  0  0
    4.7358   -1.8528    2.1390 H   0  0  0  0  0  0  0  0  0  0  0  0
    2.8702   -2.2263   -1.2416 C   0  0  0  0  0  0  0  0  0  0  0  0
    2.1610   -1.5989   -1.8170 H   0  0  0  0  0  0  0  0  0  0  0  0
    2.4221   -3.2181   -1.0428 H   0  0  0  0  0  0  0  0  0  0  0  0
    3.8095   -2.3253   -1.8208 H   0  0  0  0  0  0  0  0  0  0  0  0
  1  3  1  0  0  0  0
  3  5  1  0  0  0  0
  3  6  1  0  0  0  0
  4 14  1  0  0  0  0
  4  2  1  0  0  0  0
  5  4  1  0  0  0  0
  6  7  1  0  0  0  0
  6  9  1  0  0  0  0
  8  6  1  0  0  0  0
 10 11  1  0  0  0  0
 10  3  1  0  0  0  0
 12 10  1  0  0  0  0
 13 10  1  0  0  0  0
 14 16  1  0  0  0  0
 14 17  1  0  0  0  0
 15 14  1  0  0  0  0
 18 20  1  0  0  0  0
 18  4  1  0  0  0  0
 19 18  1  0  0  0  0
 21 18  1  0  0  0  0
M  END
