1,2
 OpenBabel05122313063D

 20 22  0  0  0  0  0  0  0  0999 V2000
   -1.4931   -1.5817   -0.0787 S   0  0  0  0  0  1  0  0  0  0  0  0
   -1.4931    1.5817   -0.0788 S   0  0  0  0  0  1  0  0  0  0  0  0
   -4.5313   -1.4917   -0.3069 S   0  0  0  0  0  0  0  0  0  0  0  0
   -4.5313    1.4917   -0.3069 S   0  0  0  0  0  0  0  0  0  0  0  0
   -7.8005   -1.4943   -0.2114 S   0  0  0  0  0  0  0  0  0  0  0  0
   -7.8005    1.4943   -0.2115 S   0  0  0  0  0  0  0  0  0  0  0  0
   -2.9655   -0.6996   -0.1757 C   0  0  0  0  0  0  0  0  0  0  0  0
   -2.9655    0.6996   -0.1757 C   0  0  0  0  0  0  0  0  0  0  0  0
   -5.4814    0.0000   -0.2713 C   0  0  0  0  0  0  0  0  0  0  0  0
   -6.8529    0.0000   -0.2283 C   0  0  0  0  0  0  0  0  0  0  0  0
   -9.3550   -0.7077    0.0688 C   0  0  0  0  0  0  0  0  0  0  0  0
   -9.3550    0.7077    0.0688 C   0  0  0  0  0  0  0  0  0  0  0  0
  -10.5531    1.4145    0.2619 C   0  0  0  0  0  0  0  0  0  0  0  0
  -11.7471    0.7024    0.4524 C   0  0  0  0  0  0  0  0  0  0  0  0
  -11.7471   -0.7024    0.4524 C   0  0  0  0  0  0  0  0  0  0  0  0
  -10.5531   -1.4145    0.2619 C   0  0  0  0  0  0  0  0  0  0  0  0
  -10.5503    2.5144    0.2654 H   0  0  0  0  0  0  0  0  0  0  0  0
  -12.6861    1.2542    0.6049 H   0  0  0  0  0  0  0  0  0  0  0  0
  -12.6861   -1.2542    0.6049 H   0  0  0  0  0  0  0  0  0  0  0  0
  -10.5503   -2.5144    0.2654 H   0  0  0  0  0  0  0  0  0  0  0  0
  3  9  1  0  0  0  0
  3  7  1  0  0  0  0
  4  9  1  0  0  0  0
  4  8  1  0  0  0  0
  5 11  1  0  0  0  0
  6 12  1  0  0  0  0
  7  1  1  0  0  0  0
  8  7  2  0  0  0  0
  8  2  1  0  0  0  0
  9 10  2  0  0  0  0
 10  6  1  0  0  0  0
 10  5  1  0  0  0  0
 11 16  1  0  0  0  0
 12 11  2  0  0  0  0
 12 13  1  0  0  0  0
 13 17  1  0  0  0  0
 13 14  2  0  0  0  0
 14 15  1  0  0  0  0
 14 18  1  0  0  0  0
 15 19  1  0  0  0  0
 16 20  1  0  0  0  0
 16 15  2  0  0  0  0
M  END
