1,27
 OpenBabel05122313063D

 39 40  0  0  0  0  0  0  0  0999 V2000
    1.0430   -1.0071   -1.7028 S   0  0  0  0  0  0  0  0  0  0  0  0
    2.8456   -1.1270   -1.3297 C   0  0  0  0  0  0  0  0  0  0  0  0
    3.3588   -0.3202    0.0181 B   0  0  0  0  0  0  0  0  0  0  0  0
    4.9953   -0.4596   -0.0026 C   0  0  0  0  0  0  0  0  0  0  0  0
    5.8536    0.6393   -0.2384 C   0  0  0  0  0  0  0  0  0  0  0  0
    7.2497    0.4949   -0.3040 C   0  0  0  0  0  0  0  0  0  0  0  0
    7.8388   -0.7676   -0.1373 C   0  0  0  0  0  0  0  0  0  0  0  0
    7.0140   -1.8810    0.0907 C   0  0  0  0  0  0  0  0  0  0  0  0
    5.6212   -1.7205    0.1536 C   0  0  0  0  0  0  0  0  0  0  0  0
    5.0016   -2.6176    0.3289 H   0  0  0  0  0  0  0  0  0  0  0  0
    7.4598   -2.8803    0.2204 H   0  0  0  0  0  0  0  0  0  0  0  0
    8.9326   -0.8848   -0.1857 H   0  0  0  0  0  0  0  0  0  0  0  0
    7.8833    1.3777   -0.4870 H   0  0  0  0  0  0  0  0  0  0  0  0
    5.4170    1.6416   -0.3739 H   0  0  0  0  0  0  0  0  0  0  0  0
    2.9050    1.2464    0.0259 C   0  0  0  0  0  0  0  0  0  0  0  0
    3.1438    2.0624    1.1612 C   0  0  0  0  0  0  0  0  0  0  0  0
    2.8923    3.4433    1.1641 C   0  0  0  0  0  0  0  0  0  0  0  0
    2.3605    4.0668    0.0212 C   0  0  0  0  0  0  0  0  0  0  0  0
    2.1045    3.2914   -1.1183 C   0  0  0  0  0  0  0  0  0  0  0  0
    2.3860    1.9134   -1.1077 C   0  0  0  0  0  0  0  0  0  0  0  0
    2.2380    1.3460   -2.0422 H   0  0  0  0  0  0  0  0  0  0  0  0
    1.7019    3.7662   -2.0274 H   0  0  0  0  0  0  0  0  0  0  0  0
    2.1589    5.1490    0.0178 H   0  0  0  0  0  0  0  0  0  0  0  0
    3.1176    4.0418    2.0613 H   0  0  0  0  0  0  0  0  0  0  0  0
    3.5839    1.6071    2.0642 H   0  0  0  0  0  0  0  0  0  0  0  0
    2.8087   -1.0713    1.3830 C   0  0  0  0  0  0  0  0  0  0  0  0
    1.0229   -1.4679    1.3399 S   0  0  0  0  0  0  0  0  0  0  0  0
    0.5964   -1.3338    3.1020 C   0  0  0  0  0  0  0  0  0  0  0  0
   -0.4645   -1.6108    3.2354 H   0  0  0  0  0  0  0  0  0  0  0  0
    1.2434   -2.0549    3.6368 H   0  0  0  0  0  0  0  0  0  0  0  0
    0.7654   -0.3068    3.4767 H   0  0  0  0  0  0  0  0  0  0  0  0
    3.3087   -2.0454    1.5616 H   0  0  0  0  0  0  0  0  0  0  0  0
    2.9714   -0.4326    2.2746 H   0  0  0  0  0  0  0  0  0  0  0  0
    3.3367   -0.7321   -2.2429 H   0  0  0  0  0  0  0  0  0  0  0  0
    3.0782   -2.2093   -1.2697 H   0  0  0  0  0  0  0  0  0  0  0  0
    0.5058   -2.7404   -1.6721 C   0  0  0  0  0  0  0  0  0  0  0  0
   -0.5916   -2.7529   -1.8082 H   0  0  0  0  0  0  0  0  0  0  0  0
    1.0087   -3.2699   -2.5037 H   0  0  0  0  0  0  0  0  0  0  0  0
    0.7514   -3.2032   -0.6966 H   0  0  0  0  0  0  0  0  0  0  0  0
  1 36  1  0  0  0  0
  1  2  1  0  0  0  0
  2 35  1  0  0  0  0
  2  3  1  0  0  0  0
  3 15  1  0  0  0  0
  3 26  1  0  0  0  0
  4  3  1  0  0  0  0
  4  9  1  0  0  0  0
  5  4  2  0  0  0  0
  6  5  1  0  0  0  0
  6  7  2  0  0  0  0
  7  8  1  0  0  0  0
  8  9  2  0  0  0  0
  8 11  1  0  0  0  0
  9 10  1  0  0  0  0
 12  7  1  0  0  0  0
 13  6  1  0  0  0  0
 14  5  1  0  0  0  0
 15 16  1  0  0  0  0
 16 17  2  0  0  0  0
 16 25  1  0  0  0  0
 17 24  1  0  0  0  0
 18 17  1  0  0  0  0
 19 20  1  0  0  0  0
 19 18  2  0  0  0  0
 20 15  2  0  0  0  0
 21 20  1  0  0  0  0
 22 19  1  0  0  0  0
 23 18  1  0  0  0  0
 26 32  1  0  0  0  0
 26 33  1  0  0  0  0
 27 26  1  0  0  0  0
 27 28  1  0  0  0  0
 28 29  1  0  0  0  0
 28 31  1  0  0  0  0
 28 30  1  0  0  0  0
 34  2  1  0  0  0  0
 36 39  1  0  0  0  0
 37 36  1  0  0  0  0
 38 36  1  0  0  0  0
M  END
