1,2
 OpenBabel05122313063D

 28 30  0  0  0  0  0  0  0  0999 V2000
    1.6066    1.6897   -0.5010 S   0  0  0  0  0  1  0  0  0  0  0  0
    1.6259   -1.6771   -0.4772 S   0  0  0  0  0  1  0  0  0  0  0  0
    4.3438    1.5660   -1.7114 S   0  0  0  0  0  0  0  0  0  0  0  0
    4.3442   -1.5486   -1.7156 S   0  0  0  0  0  0  0  0  0  0  0  0
    5.6249    0.6871   -0.8026 C   0  0  0  0  0  0  0  0  0  0  0  0
    5.6348   -0.6838   -0.8228 C   0  0  0  0  0  0  0  0  0  0  0  0
    2.8896    0.6922   -1.1736 C   0  0  0  0  0  0  0  0  0  0  0  0
    2.8938   -0.6751   -1.1672 C   0  0  0  0  0  0  0  0  0  0  0  0
    6.5483    1.5468   -0.0338 C   0  0  0  0  0  0  0  0  0  0  0  0
    6.8781    1.2752    1.3131 C   0  0  0  0  0  0  0  0  0  0  0  0
    6.4422    0.4062    1.8259 H   0  0  0  0  0  0  0  0  0  0  0  0
    7.9885    3.4917    0.1627 C   0  0  0  0  0  0  0  0  0  0  0  0
    8.4471    4.3933   -0.2837 H   0  0  0  0  0  0  0  0  0  0  0  0
    7.7529    2.1360    1.9890 C   0  0  0  0  0  0  0  0  0  0  0  0
    8.0105    1.9309    3.0442 H   0  0  0  0  0  0  0  0  0  0  0  0
    7.1212    2.7047   -0.6064 C   0  0  0  0  0  0  0  0  0  0  0  0
    6.8912    2.9837   -1.6460 H   0  0  0  0  0  0  0  0  0  0  0  0
    6.6597   -1.5491   -0.2014 C   0  0  0  0  0  0  0  0  0  0  0  0
    8.0404   -1.2589   -0.2960 C   0  0  0  0  0  0  0  0  0  0  0  0
    8.3851   -0.3667   -0.8380 H   0  0  0  0  0  0  0  0  0  0  0  0
    8.9626   -2.1296    0.2986 C   0  0  0  0  0  0  0  0  0  0  0  0
   10.0439   -1.9109    0.2258 H   0  0  0  0  0  0  0  0  0  0  0  0
    7.3115   -3.5269    1.0448 C   0  0  0  0  0  0  0  0  0  0  0  0
    7.0390   -4.4476    1.5924 H   0  0  0  0  0  0  0  0  0  0  0  0
    6.3023   -2.7329    0.4823 C   0  0  0  0  0  0  0  0  0  0  0  0
    5.2414   -3.0123    0.5672 H   0  0  0  0  0  0  0  0  0  0  0  0
    8.3151    3.2267    1.4393 N   0  0  0  0  0  0  0  0  0  0  0  0
    8.6243   -3.2472    0.9654 N   0  0  0  0  0  0  0  0  0  0  0  0
  3  7  1  0  0  0  0
  3  5  1  0  0  0  0
  4  8  1  0  0  0  0
  4  6  1  0  0  0  0
  5  9  1  0  0  0  0
  6  5  2  0  0  0  0
  6 18  1  0  0  0  0
  7  8  2  0  0  0  0
  7  1  1  0  0  0  0
  8  2  1  0  0  0  0
  9 10  1  0  0  0  0
 10 11  1  0  0  0  0
 10 14  2  0  0  0  0
 12 27  2  0  0  0  0
 13 12  1  0  0  0  0
 14 15  1  0  0  0  0
 16  9  2  0  0  0  0
 16 12  1  0  0  0  0
 17 16  1  0  0  0  0
 18 25  1  0  0  0  0
 19 18  2  0  0  0  0
 19 21  1  0  0  0  0
 20 19  1  0  0  0  0
 21 28  2  0  0  0  0
 22 21  1  0  0  0  0
 23 24  1  0  0  0  0
 25 26  1  0  0  0  0
 25 23  2  0  0  0  0
 27 14  1  0  0  0  0
 28 23  1  0  0  0  0
M  END
