1,2
 OpenBabel05122313063D

 27 26  0  0  1  0  0  0  0  0999 V2000
    1.4058   -0.1800   -2.0133 S   0  0  0  0  0  1  0  0  0  0  0  0
    2.2254   -0.0430    0.7284 S   0  0  0  0  0  1  0  0  0  0  0  0
    4.5677   -2.6509    0.1703 O   0  0  0  0  0  0  0  0  0  0  0  0
    5.4839   -1.3190    1.7625 O   0  0  0  0  0  0  0  0  0  0  0  0
    4.0108   -0.3091   -1.3097 N   0  0  0  0  0  0  0  0  0  0  0  0
    2.7299   -0.1916   -0.9127 C   0  0  0  0  0  3  0  0  0  0  0  0
    5.1613   -0.3602   -0.4117 C   0  0  1  0  0  0  0  0  0  0  0  0
    5.4490    0.9781    0.2890 C   0  0  0  0  0  0  0  0  0  0  0  0
    5.5508    2.1882   -0.6545 C   0  0  0  0  0  0  0  0  0  0  0  0
    5.7504    3.4686    0.1652 C   0  0  0  0  0  0  0  0  0  0  0  0
    6.6563    2.0289   -1.7060 C   0  0  0  0  0  0  0  0  0  0  0  0
    5.0101   -1.5793    0.5262 C   0  0  0  0  0  0  0  0  0  0  0  0
    5.3550   -2.3979    2.6988 C   0  0  0  0  0  0  0  0  0  0  0  0
    4.1581   -0.4723   -2.3079 H   0  0  0  0  0  0  0  0  0  0  0  0
    6.0268   -0.6178   -1.0583 H   0  0  0  0  0  0  0  0  0  0  0  0
    4.6541    1.1625    1.0390 H   0  0  0  0  0  0  0  0  0  0  0  0
    6.3940    0.8600    0.8594 H   0  0  0  0  0  0  0  0  0  0  0  0
    4.5779    2.2770   -1.1881 H   0  0  0  0  0  0  0  0  0  0  0  0
    6.4813    1.1655   -2.3812 H   0  0  0  0  0  0  0  0  0  0  0  0
    7.6469    1.8825   -1.2238 H   0  0  0  0  0  0  0  0  0  0  0  0
    6.7287    2.9296   -2.3485 H   0  0  0  0  0  0  0  0  0  0  0  0
    6.7087    3.4362    0.7265 H   0  0  0  0  0  0  0  0  0  0  0  0
    4.9339    3.6048    0.9029 H   0  0  0  0  0  0  0  0  0  0  0  0
    5.7735    4.3658   -0.4860 H   0  0  0  0  0  0  0  0  0  0  0  0
    4.2844   -2.6361    2.8599 H   0  0  0  0  0  0  0  0  0  0  0  0
    5.8188   -2.0462    3.6371 H   0  0  0  0  0  0  0  0  0  0  0  0
    5.8648   -3.3083    2.3254 H   0  0  0  0  0  0  0  0  0  0  0  0
  1  6  1  0  0  0  0
  3 12  2  0  0  0  0
  4 13  1  0  0  0  0
  5  6  1  0  0  0  0
  5  7  1  0  0  0  0
  6  2  1  0  0  0  0
  7 15  1  6  0  0  0
  7  8  1  0  0  0  0
  7 12  1  0  0  0  0
  8 17  1  0  0  0  0
  8 16  1  0  0  0  0
  9 10  1  0  0  0  0
  9  8  1  0  0  0  0
 10 22  1  0  0  0  0
 10 23  1  0  0  0  0
 11 20  1  0  0  0  0
 11  9  1  0  0  0  0
 12  4  1  0  0  0  0
 13 25  1  0  0  0  0
 13 26  1  0  0  0  0
 14  5  1  0  0  0  0
 18  9  1  0  0  0  0
 19 11  1  0  0  0  0
 21 11  1  0  0  0  0
 24 10  1  0  0  0  0
 27 13  1  0  0  0  0
M  END
