1,2
 OpenBabel05122313063D

 12 12  0  0  0  0  0  0  0  0999 V2000
    2.3392    1.4154   -0.0001 S   0  0  0  0  0  1  0  0  0  0  0  0
    2.1397   -1.8361    0.0003 S   0  0  0  0  0  1  0  0  0  0  0  0
    5.2684   -1.6973    0.0002 S   0  0  0  0  0  0  0  0  0  0  0  0
    7.6888    0.1374   -0.0001 S   0  0  0  0  0  0  0  0  0  0  0  0
    3.7429    0.3848   -0.0000 C   0  0  0  0  0  0  0  0  0  0  0  0
    3.6564   -0.9949    0.0001 C   0  0  0  0  0  0  0  0  0  0  0  0
    6.0453   -0.0971    0.0000 C   0  0  0  0  0  0  0  0  0  0  0  0
    5.0493    0.8678   -0.0001 N   0  0  0  0  0  0  0  0  0  0  0  0
    5.3447    2.2897   -0.0002 C   0  0  0  0  0  0  0  0  0  0  0  0
    4.9126    2.7692    0.9016 H   0  0  0  0  0  0  0  0  0  0  0  0
    4.9126    2.7691   -0.9019 H   0  0  0  0  0  0  0  0  0  0  0  0
    6.4473    2.3927   -0.0002 H   0  0  0  0  0  0  0  0  0  0  0  0
  1  5  1  0  0  0  0
  4  7  2  0  0  0  0
  5  6  2  0  0  0  0
  6  3  1  0  0  0  0
  6  2  1  0  0  0  0
  7  3  1  0  0  0  0
  8  5  1  0  0  0  0
  8  7  1  0  0  0  0
  9  8  1  0  0  0  0
  9 10  1  0  0  0  0
 11  9  1  0  0  0  0
 12  9  1  0  0  0  0
M  END
