1,2
 OpenBabel05122313063D

 12 12  0  0  1  0  0  0  0  0999 V2000
   -1.5365   -1.5463   -0.0006 S   0  0  0  0  0  1  0  0  0  0  0  0
   -1.5012    1.6046   -0.0004 S   0  0  0  0  0  1  0  0  0  0  0  0
   -4.2036   -1.3199    0.0001 N   0  0  0  0  0  0  0  0  0  0  0  0
   -3.0034   -0.6609   -0.0001 C   0  0  2  0  0  3  0  0  0  0  0  0
   -3.0222    0.7765   -0.0001 C   0  0  0  0  0  0  0  0  0  0  0  0
   -4.2735    1.4234   -0.0001 C   0  0  0  0  0  0  0  0  0  0  0  0
   -5.4753    0.6810    0.0002 C   0  0  0  0  0  0  0  0  0  0  0  0
   -5.4275   -0.7040    0.0003 C   0  0  0  0  0  0  0  0  0  0  0  0
   -4.1569   -2.3439    0.0001 H   0  0  0  0  0  0  0  0  0  0  0  0
   -4.3022    2.5232   -0.0002 H   0  0  0  0  0  0  0  0  0  0  0  0
   -6.4498    1.1876    0.0003 H   0  0  0  0  0  0  0  0  0  0  0  0
   -6.3071   -1.3594    0.0005 H   0  0  0  0  0  0  0  0  0  0  0  0
  2  5  1  0  0  0  0
  3  8  1  0  0  0  0
  4  1  1  6  0  0  0
  4  3  1  0  0  0  0
  5  4  1  0  0  0  0
  5  6  2  0  0  0  0
  6  7  1  0  0  0  0
  7  8  2  0  0  0  0
  7 11  1  0  0  0  0
  8 12  1  0  0  0  0
  9  3  1  0  0  0  0
 10  6  1  0  0  0  0
M  END
