5,12
 OpenBabel05122313063D

 18 17  0  0  0  0  0  0  0  0999 V2000
   -3.0871    1.7169   -0.5221 C   0  0  0  0  0  0  0  0  0  0  0  0
   -3.7860    0.8602   -0.5487 H   0  0  0  0  0  0  0  0  0  0  0  0
   -2.6468    1.8410   -1.5290 H   0  0  0  0  0  0  0  0  0  0  0  0
   -3.6324    2.6283   -0.2099 H   0  0  0  0  0  0  0  0  0  0  0  0
   -1.8295    1.2933    0.7332 S   0  0  0  0  0  0  0  0  0  0  0  0
   -0.7075    2.7453    0.6170 C   0  0  0  0  0  0  0  0  0  0  0  0
   -1.3067    3.6530    0.8391 H   0  0  0  0  0  0  0  0  0  0  0  0
    0.0014    2.5700    1.4518 H   0  0  0  0  0  0  0  0  0  0  0  0
    0.0046    2.8728   -0.7180 C   0  0  0  0  0  0  0  0  0  0  0  0
    0.7193    3.7214   -0.7071 H   0  0  0  0  0  0  0  0  0  0  0  0
   -0.7045    3.0588   -1.5498 H   0  0  0  0  0  0  0  0  0  0  0  0
    0.9522    1.3789   -1.2428 S   0  0  0  0  0  0  0  0  0  0  0  0
    2.5430    1.6307   -0.3061 C   0  0  0  0  0  0  0  0  0  0  0  0
    2.8829    2.6632   -0.5317 H   0  0  0  0  0  0  0  0  0  0  0  0
    2.3101    1.5087    0.7774 H   0  0  0  0  0  0  0  0  0  0  0  0
    3.4972    0.6327   -0.7378 C   0  0  0  0  0  0  0  0  0  0  0  0
    4.2675   -0.2421   -1.1044 C   0  0  0  0  0  0  0  0  0  0  0  0
    4.9476   -1.0229   -1.4152 H   0  0  0  0  0  0  0  0  0  0  0  0
  1  4  1  0  0  0  0
  1  5  1  0  0  0  0
  2  1  1  0  0  0  0
  3  1  1  0  0  0  0
  6  5  1  0  0  0  0
  6  7  1  0  0  0  0
  6  8  1  0  0  0  0
  9 10  1  0  0  0  0
  9  6  1  0  0  0  0
 11  9  1  0  0  0  0
 12  9  1  0  0  0  0
 12 13  1  0  0  0  0
 13 15  1  0  0  0  0
 14 13  1  0  0  0  0
 16 13  1  0  0  0  0
 17 16  3  0  0  0  0
 18 17  1  0  0  0  0
M  END
