1,2
 OpenBabel05122313063D

  9  9  0  0  0  0  0  0  0  0999 V2000
   -1.6762    1.6910   -0.0013 S   0  0  0  0  0  1  0  0  0  0  0  0
   -1.6760   -1.6909   -0.0014 S   0  0  0  0  0  1  0  0  0  0  0  0
   -5.6475   -0.0002    0.0010 S   0  0  0  0  0  0  0  0  0  0  0  0
   -3.1523    0.7229   -0.0003 C   0  0  0  0  0  0  0  0  0  0  0  0
   -3.1522   -0.7230   -0.0003 C   0  0  0  0  0  0  0  0  0  0  0  0
   -4.4371    1.2478    0.0004 C   0  0  0  0  0  0  0  0  0  0  0  0
   -4.7288    2.3045    0.0010 H   0  0  0  0  0  0  0  0  0  0  0  0
   -4.4369   -1.2480    0.0004 C   0  0  0  0  0  0  0  0  0  0  0  0
   -4.7285   -2.3048    0.0009 H   0  0  0  0  0  0  0  0  0  0  0  0
  1  4  1  0  0  0  0
  2  5  1  0  0  0  0
  4  6  2  0  0  0  0
  5  4  1  0  0  0  0
  5  8  2  0  0  0  0
  6  7  1  0  0  0  0
  6  3  1  0  0  0  0
  8  9  1  0  0  0  0
  8  3  1  0  0  0  0
M  END
