25,26
 OpenBabel05122313063D

 28 30  0  0  0  0  0  0  0  0999 V2000
    2.0228    0.7173    0.0381 C   0  0  0  0  0  0  0  0  0  0  0  0
    2.0219   -0.6552    0.0151 C   0  0  0  0  0  0  0  0  0  0  0  0
    4.5583    0.0673    0.0488 C   0  0  0  0  0  0  0  0  0  0  0  0
    5.9507    0.0227    0.0187 C   0  0  0  0  0  0  0  0  0  0  0  0
    6.6480   -1.2943    0.0529 C   0  0  0  0  0  0  0  0  0  0  0  0
    6.3775   -2.2306    1.0806 C   0  0  0  0  0  0  0  0  0  0  0  0
    5.6649   -1.9779    1.8790 H   0  0  0  0  0  0  0  0  0  0  0  0
    7.0332   -3.4665    1.0715 C   0  0  0  0  0  0  0  0  0  0  0  0
    6.8360   -4.2056    1.8633 H   0  0  0  0  0  0  0  0  0  0  0  0
    7.9548   -3.7371    0.0489 C   0  0  0  0  0  0  0  0  0  0  0  0
    8.4940   -4.6947   -0.0017 H   0  0  0  0  0  0  0  0  0  0  0  0
    8.1855   -2.7348   -0.9067 C   0  0  0  0  0  0  0  0  0  0  0  0
    8.9222   -2.8987   -1.7146 H   0  0  0  0  0  0  0  0  0  0  0  0
    6.7225    1.2609   -0.0529 C   0  0  0  0  0  0  0  0  0  0  0  0
    8.1424    1.3126   -0.1264 C   0  0  0  0  0  0  0  0  0  0  0  0
    8.7217    0.3836   -0.1851 H   0  0  0  0  0  0  0  0  0  0  0  0
    8.7721    2.5567   -0.1575 C   0  0  0  0  0  0  0  0  0  0  0  0
    9.8703    2.6124   -0.2154 H   0  0  0  0  0  0  0  0  0  0  0  0
    8.0005    3.7343   -0.1208 C   0  0  0  0  0  0  0  0  0  0  0  0
    8.4652    4.7306   -0.1457 H   0  0  0  0  0  0  0  0  0  0  0  0
    6.6080    3.5936   -0.0549 C   0  0  0  0  0  0  0  0  0  0  0  0
    5.9490    4.4806   -0.0275 H   0  0  0  0  0  0  0  0  0  0  0  0
    7.5577   -1.5506   -0.9145 N   0  0  0  0  0  0  0  0  0  0  0  0
    5.9973    2.4052   -0.0205 N   0  0  0  0  0  0  0  0  0  0  0  0
    0.5572   -1.6027   -0.0014 S   0  0  0  0  0  1  0  0  0  0  0  0
    0.5372    1.6297    0.0458 S   0  0  0  0  0  1  0  0  0  0  0  0
    3.6025   -1.4232    0.0087 S   0  0  0  0  0  0  0  0  0  0  0  0
    3.5945    1.5550    0.0548 S   0  0  0  0  0  0  0  0  0  0  0  0
  1 26  1  0  0  0  0
  1 28  1  0  0  0  0
  2  1  2  0  0  0  0
  3 28  1  0  0  0  0
  4  3  2  0  0  0  0
  4  5  1  0  0  0  0
  5  6  1  0  0  0  0
  6  7  1  0  0  0  0
  8  6  2  0  0  0  0
  8  9  1  0  0  0  0
 10  8  1  0  0  0  0
 11 10  1  0  0  0  0
 12 10  2  0  0  0  0
 13 12  1  0  0  0  0
 14 24  1  0  0  0  0
 14  4  1  0  0  0  0
 15 14  2  0  0  0  0
 16 15  1  0  0  0  0
 17 15  1  0  0  0  0
 17 19  2  0  0  0  0
 18 17  1  0  0  0  0
 19 21  1  0  0  0  0
 20 19  1  0  0  0  0
 21 22  1  0  0  0  0
 21 24  2  0  0  0  0
 23 12  1  0  0  0  0
 23  5  2  0  0  0  0
 25  2  1  0  0  0  0
 27  2  1  0  0  0  0
 27  3  1  0  0  0  0
M  END
