1,9
 OpenBabel05122313063D

 15 15  0  0  0  0  0  0  0  0999 V2000
    1.4935    1.5536   -0.1391 S   0  0  0  0  0  1  0  0  0  0  0  0
    2.9655    0.7036   -0.4109 C   0  0  0  0  0  0  0  0  0  0  0  0
    4.3783    1.6892   -0.8015 S   0  0  0  0  0  0  0  0  0  0  0  0
    5.5172    1.3043    0.5784 C   0  0  0  0  0  0  0  0  0  0  0  0
    6.3025    0.0000    0.4681 C   0  0  0  0  0  0  0  0  0  0  0  0
    5.5172   -1.3043    0.5784 C   0  0  0  0  0  0  0  0  0  0  0  0
    4.3783   -1.6892   -0.8015 S   0  0  0  0  0  0  0  0  0  0  0  0
    2.9655   -0.7036   -0.4109 C   0  0  0  0  0  0  0  0  0  0  0  0
    1.4934   -1.5536   -0.1391 S   0  0  0  0  0  1  0  0  0  0  0  0
    6.2581   -2.1289    0.5742 H   0  0  0  0  0  0  0  0  0  0  0  0
    4.9650   -1.3390    1.5374 H   0  0  0  0  0  0  0  0  0  0  0  0
    7.0344   -0.0000   -0.6853 F   0  0  0  0  0  0  0  0  0  0  0  0
    7.2051    0.0000    1.5191 F   0  0  0  0  0  0  0  0  0  0  0  0
    4.9650    1.3391    1.5374 H   0  0  0  0  0  0  0  0  0  0  0  0
    6.2581    2.1289    0.5742 H   0  0  0  0  0  0  0  0  0  0  0  0
  2  1  1  0  0  0  0
  3  2  1  0  0  0  0
  3  4  1  0  0  0  0
  4 14  1  0  0  0  0
  5  4  1  0  0  0  0
  5  6  1  0  0  0  0
  5 13  1  0  0  0  0
  6 11  1  0  0  0  0
  7  8  1  0  0  0  0
  7  6  1  0  0  0  0
  8  2  2  0  0  0  0
  8  9  1  0  0  0  0
 10  6  1  0  0  0  0
 12  5  1  0  0  0  0
 15  4  1  0  0  0  0
M  END
