1,2
 OpenBabel05122313063D

 32 33  0  0  0  0  0  0  0  0999 V2000
   -1.4522    1.2360   -0.9943 S   0  0  0  0  0  1  0  0  0  0  0  0
   -1.4704   -1.5215    0.3733 S   0  0  0  0  0  1  0  0  0  0  0  0
   -2.9339    0.3553   -0.9224 C   0  0  0  0  0  0  0  0  0  0  0  0
   -2.9361   -0.9078   -0.3138 C   0  0  0  0  0  0  0  0  0  0  0  0
   -4.1698    1.0877   -1.3832 C   0  0  0  0  0  0  0  0  0  0  0  0
   -4.1320   -1.7741   -0.1849 C   0  0  0  0  0  0  0  0  0  0  0  0
   -4.6464    2.1286   -0.3531 C   0  0  0  0  0  0  0  0  0  0  0  0
   -4.9907    0.3654   -1.5655 H   0  0  0  0  0  0  0  0  0  0  0  0
   -3.9600    1.5979   -2.3469 H   0  0  0  0  0  0  0  0  0  0  0  0
   -4.5209   -2.2671    1.0817 C   0  0  0  0  0  0  0  0  0  0  0  0
   -4.8906   -2.1460   -1.3190 C   0  0  0  0  0  0  0  0  0  0  0  0
   -5.0339    1.5633    1.0229 C   0  0  0  0  0  0  0  0  0  0  0  0
   -5.9178    2.8897   -0.7746 C   0  0  0  0  0  0  0  0  0  0  0  0
   -3.8190    2.8598   -0.2036 H   0  0  0  0  0  0  0  0  0  0  0  0
   -5.6501   -3.0860    1.2128 C   0  0  0  0  0  0  0  0  0  0  0  0
   -3.9284   -1.9868    1.9655 H   0  0  0  0  0  0  0  0  0  0  0  0
   -6.0182   -2.9672   -1.1847 C   0  0  0  0  0  0  0  0  0  0  0  0
   -4.5720   -1.8047   -2.3154 H   0  0  0  0  0  0  0  0  0  0  0  0
   -5.7603    2.7402    1.6941 C   0  0  0  0  0  0  0  0  0  0  0  0
   -5.7245    0.7020    0.8823 H   0  0  0  0  0  0  0  0  0  0  0  0
   -4.1647    1.1913    1.6021 H   0  0  0  0  0  0  0  0  0  0  0  0
   -6.5013    3.4741    0.5392 C   0  0  0  0  0  0  0  0  0  0  0  0
   -5.7162    3.6603   -1.5459 H   0  0  0  0  0  0  0  0  0  0  0  0
   -6.6320    2.1662   -1.2245 H   0  0  0  0  0  0  0  0  0  0  0  0
   -6.4054   -3.4352    0.0816 C   0  0  0  0  0  0  0  0  0  0  0  0
   -5.9445   -3.4526    2.2078 H   0  0  0  0  0  0  0  0  0  0  0  0
   -6.5938   -3.2525   -2.0784 H   0  0  0  0  0  0  0  0  0  0  0  0
   -5.0123    3.4179    2.1558 H   0  0  0  0  0  0  0  0  0  0  0  0
   -6.4404    2.4178    2.5074 H   0  0  0  0  0  0  0  0  0  0  0  0
   -7.5972    3.3149    0.5903 H   0  0  0  0  0  0  0  0  0  0  0  0
   -6.3439    4.5695    0.6008 H   0  0  0  0  0  0  0  0  0  0  0  0
   -7.2924   -4.0783    0.1855 H   0  0  0  0  0  0  0  0  0  0  0  0
  1  3  1  0  0  0  0
  3  4  2  0  0  0  0
  4  6  1  0  0  0  0
  4  2  1  0  0  0  0
  5  3  1  0  0  0  0
  5  7  1  0  0  0  0
  6 10  1  0  0  0  0
  7 14  1  0  0  0  0
  7 12  1  0  0  0  0
  8  5  1  0  0  0  0
  9  5  1  0  0  0  0
 10 15  2  0  0  0  0
 10 16  1  0  0  0  0
 11 17  1  0  0  0  0
 11  6  2  0  0  0  0
 12 21  1  0  0  0  0
 12 19  1  0  0  0  0
 13  7  1  0  0  0  0
 13 22  1  0  0  0  0
 15 26  1  0  0  0  0
 17 25  2  0  0  0  0
 18 11  1  0  0  0  0
 19 28  1  0  0  0  0
 19 29  1  0  0  0  0
 20 12  1  0  0  0  0
 22 30  1  0  0  0  0
 22 31  1  0  0  0  0
 22 19  1  0  0  0  0
 23 13  1  0  0  0  0
 24 13  1  0  0  0  0
 25 32  1  0  0  0  0
 25 15  1  0  0  0  0
 27 17  1  0  0  0  0
M  END
