1,2
 OpenBabel05122313063D

 39 41  0  0  0  0  0  0  0  0999 V2000
    0.4134    0.0365   -1.7233 S   0  0  0  0  0  1  0  0  0  0  0  0
   -0.7017    0.2117    1.7789 S   0  0  0  0  0  0  0  0  0  0  0  0
    1.8003    0.0962   -0.2693 P   0  0  0  0  0  4  0  0  0  0  0  0
   -1.9760   -0.2299    2.9863 C   0  0  0  0  0  0  0  0  0  0  0  0
   -1.5548   -0.2275    4.0089 H   0  0  0  0  0  0  0  0  0  0  0  0
   -2.7352    0.5680    2.8968 H   0  0  0  0  0  0  0  0  0  0  0  0
   -2.4308   -1.2051    2.7275 H   0  0  0  0  0  0  0  0  0  0  0  0
    1.9040    1.6920    0.6106 C   0  0  0  0  0  0  0  0  0  0  0  0
    1.3956    2.8456   -0.0119 C   0  0  0  0  0  0  0  0  0  0  0  0
    0.8976    2.7584   -0.9893 H   0  0  0  0  0  0  0  0  0  0  0  0
    1.4840    4.0796    0.6489 C   0  0  0  0  0  0  0  0  0  0  0  0
    1.0683    4.9795    0.1720 H   0  0  0  0  0  0  0  0  0  0  0  0
    2.0768    4.1604    1.9180 C   0  0  0  0  0  0  0  0  0  0  0  0
    2.1377    5.1302    2.4351 H   0  0  0  0  0  0  0  0  0  0  0  0
    2.5794    3.0041    2.5403 C   0  0  0  0  0  0  0  0  0  0  0  0
    3.0324    3.0669    3.5413 H   0  0  0  0  0  0  0  0  0  0  0  0
    2.4905    1.7652    1.8922 C   0  0  0  0  0  0  0  0  0  0  0  0
    2.8580    0.8526    2.3869 H   0  0  0  0  0  0  0  0  0  0  0  0
    3.4442   -0.2199   -1.0116 C   0  0  0  0  0  0  0  0  0  0  0  0
    4.6042    0.4067   -0.5156 C   0  0  0  0  0  0  0  0  0  0  0  0
    4.5345    1.1234    0.3158 H   0  0  0  0  0  0  0  0  0  0  0  0
    5.8493    0.1238   -1.0973 C   0  0  0  0  0  0  0  0  0  0  0  0
    6.7541    0.6187   -0.7135 H   0  0  0  0  0  0  0  0  0  0  0  0
    5.9394   -0.7789   -2.1687 C   0  0  0  0  0  0  0  0  0  0  0  0
    6.9178   -0.9958   -2.6237 H   0  0  0  0  0  0  0  0  0  0  0  0
    4.7808   -1.3977   -2.6666 C   0  0  0  0  0  0  0  0  0  0  0  0
    4.8477   -2.0990   -3.5119 H   0  0  0  0  0  0  0  0  0  0  0  0
    3.5319   -1.1190   -2.0943 C   0  0  0  0  0  0  0  0  0  0  0  0
    2.6132   -1.5834   -2.4850 H   0  0  0  0  0  0  0  0  0  0  0  0
    1.5752   -1.1730    1.0362 C   0  0  0  0  0  0  0  0  0  0  0  0
    2.4973   -2.2338    1.1251 C   0  0  0  0  0  0  0  0  0  0  0  0
    3.3615   -2.2529    0.4458 H   0  0  0  0  0  0  0  0  0  0  0  0
    2.3262   -3.2610    2.0621 C   0  0  0  0  0  0  0  0  0  0  0  0
    3.0562   -4.0816    2.1164 H   0  0  0  0  0  0  0  0  0  0  0  0
    1.2175   -3.2341    2.9174 C   0  0  0  0  0  0  0  0  0  0  0  0
    1.0620   -4.0393    3.6510 H   0  0  0  0  0  0  0  0  0  0  0  0
    0.2865   -2.1894    2.8405 C   0  0  0  0  0  0  0  0  0  0  0  0
   -0.5824   -2.2020    3.5094 H   0  0  0  0  0  0  0  0  0  0  0  0
    0.4515   -1.1503    1.9078 C   0  0  0  0  0  0  0  0  0  0  0  0
  1  3  1  0  0  0  0
  2 39  1  0  0  0  0
  2  4  1  0  0  0  0
  3  8  1  0  0  0  0
  3 30  1  0  0  0  0
  4  5  1  0  0  0  0
  6  4  1  0  0  0  0
  7  4  1  0  0  0  0
  8 17  1  0  0  0  0
  9  8  2  0  0  0  0
  9 11  1  0  0  0  0
 10  9  1  0  0  0  0
 11 13  2  0  0  0  0
 12 11  1  0  0  0  0
 13 14  1  0  0  0  0
 13 15  1  0  0  0  0
 15 16  1  0  0  0  0
 17 18  1  0  0  0  0
 17 15  2  0  0  0  0
 19 20  1  0  0  0  0
 19  3  1  0  0  0  0
 20 21  1  0  0  0  0
 22 23  1  0  0  0  0
 22 20  2  0  0  0  0
 24 22  1  0  0  0  0
 25 24  1  0  0  0  0
 26 24  2  0  0  0  0
 26 28  1  0  0  0  0
 27 26  1  0  0  0  0
 28 19  2  0  0  0  0
 29 28  1  0  0  0  0
 30 31  2  0  0  0  0
 30 39  1  0  0  0  0
 31 33  1  0  0  0  0
 32 31  1  0  0  0  0
 33 34  1  0  0  0  0
 33 35  2  0  0  0  0
 35 36  1  0  0  0  0
 37 35  1  0  0  0  0
 37 38  1  0  0  0  0
 39 37  2  0  0  0  0
M  END
