1,5
 OpenBabel05122313063D

 53 56  0  0  0  0  0  0  0  0999 V2000
   -0.5649    0.5157   -2.4442 S   0  0  0  0  0  1  0  0  0  0  0  0
    0.7831    1.4426   -1.2201 P   0  0  0  0  0  4  0  0  0  0  0  0
    1.3981    0.6557    0.0258 N   0  0  0  0  0  2  0  0  0  0  0  0
    1.1788   -0.8395    0.5369 P   0  0  0  0  0  4  0  0  0  0  0  0
    0.2246   -2.2079   -0.6232 S   0  0  0  0  0  1  0  0  0  0  0  0
    1.9940    2.0280   -2.1413 O   0  0  0  0  0  0  0  0  0  0  0  0
    3.1328   -0.0518   -2.7543 C   0  0  0  0  0  0  0  0  0  0  0  0
    4.3457   -0.7315   -2.9496 C   0  0  0  0  0  0  0  0  0  0  0  0
    5.5710   -0.0776   -2.7443 C   0  0  0  0  0  0  0  0  0  0  0  0
    5.5857    1.2680   -2.3421 C   0  0  0  0  0  0  0  0  0  0  0  0
    4.3829    1.9597   -2.1349 C   0  0  0  0  0  0  0  0  0  0  0  0
    3.1720    1.2892   -2.3462 C   0  0  0  0  0  0  0  0  0  0  0  0
    0.0569    2.8263   -0.7494 O   0  0  0  0  0  0  0  0  0  0  0  0
    1.7897    3.6588    0.8086 C   0  0  0  0  0  0  0  0  0  0  0  0
    2.1648    4.6596    1.7189 C   0  0  0  0  0  0  0  0  0  0  0  0
    1.3301    5.7594    1.9675 C   0  0  0  0  0  0  0  0  0  0  0  0
    0.1035    5.8648    1.2922 C   0  0  0  0  0  0  0  0  0  0  0  0
   -0.2891    4.8742    0.3815 C   0  0  0  0  0  0  0  0  0  0  0  0
    0.5546    3.7764    0.1550 C   0  0  0  0  0  0  0  0  0  0  0  0
    0.3732   -0.7680    1.9898 O   0  0  0  0  0  0  0  0  0  0  0  0
    1.1581    0.7779    3.6821 C   0  0  0  0  0  0  0  0  0  0  0  0
    1.0103    1.9993    4.3581 C   0  0  0  0  0  0  0  0  0  0  0  0
   -0.0198    2.8873    4.0083 C   0  0  0  0  0  0  0  0  0  0  0  0
   -0.9130    2.5537    2.9779 C   0  0  0  0  0  0  0  0  0  0  0  0
   -0.7787    1.3350    2.2978 C   0  0  0  0  0  0  0  0  0  0  0  0
    0.2546    0.4595    2.6610 C   0  0  0  0  0  0  0  0  0  0  0  0
    2.6685   -1.3878    0.8961 O   0  0  0  0  0  0  0  0  0  0  0  0
    2.4570   -3.3899    2.2681 C   0  0  0  0  0  0  0  0  0  0  0  0
    2.7683   -4.7445    2.4622 C   0  0  0  0  0  0  0  0  0  0  0  0
    3.5369   -5.4391    1.5140 C   0  0  0  0  0  0  0  0  0  0  0  0
    4.0004   -4.7779    0.3648 C   0  0  0  0  0  0  0  0  0  0  0  0
    3.6947   -3.4249    0.1542 C   0  0  0  0  0  0  0  0  0  0  0  0
    2.9263   -2.7509    1.1116 C   0  0  0  0  0  0  0  0  0  0  0  0
    2.1687   -0.5530   -2.9247 H   0  0  0  0  0  0  0  0  0  0  0  0
    4.3264   -1.7814   -3.2796 H   0  0  0  0  0  0  0  0  0  0  0  0
    6.5171   -0.6150   -2.9043 H   0  0  0  0  0  0  0  0  0  0  0  0
    6.5425    1.7872   -2.1837 H   0  0  0  0  0  0  0  0  0  0  0  0
    4.3664    3.0112   -1.8145 H   0  0  0  0  0  0  0  0  0  0  0  0
    2.4398    2.7909    0.6397 H   0  0  0  0  0  0  0  0  0  0  0  0
    3.1291    4.5693    2.2409 H   0  0  0  0  0  0  0  0  0  0  0  0
    1.6380    6.5380    2.6804 H   0  0  0  0  0  0  0  0  0  0  0  0
   -0.5544    6.7290    1.4684 H   0  0  0  0  0  0  0  0  0  0  0  0
   -1.2415    4.9419   -0.1635 H   0  0  0  0  0  0  0  0  0  0  0  0
    1.9670    0.0764    3.9317 H   0  0  0  0  0  0  0  0  0  0  0  0
    1.7145    2.2611    5.1618 H   0  0  0  0  0  0  0  0  0  0  0  0
   -0.1206    3.8486    4.5321 H   0  0  0  0  0  0  0  0  0  0  0  0
   -1.7074    3.2578    2.6896 H   0  0  0  0  0  0  0  0  0  0  0  0
   -1.4380    1.0553    1.4622 H   0  0  0  0  0  0  0  0  0  0  0  0
    1.8666   -2.8251    3.0035 H   0  0  0  0  0  0  0  0  0  0  0  0
    2.4125   -5.2582    3.3679 H   0  0  0  0  0  0  0  0  0  0  0  0
    3.7812   -6.4994    1.6745 H   0  0  0  0  0  0  0  0  0  0  0  0
    4.6073   -5.3188   -0.3765 H   0  0  0  0  0  0  0  0  0  0  0  0
    4.0437   -2.8771   -0.7329 H   0  0  0  0  0  0  0  0  0  0  0  0
  1  2  1  0  0  0  0
  2 13  1  0  0  0  0
  2  3  1  0  0  0  0
  3  4  1  0  0  0  0
  4 27  1  0  0  0  0
  4 20  1  0  0  0  0
  5  4  1  0  0  0  0
  6  2  1  0  0  0  0
  7 12  1  0  0  0  0
  8  7  2  0  0  0  0
  8  9  1  0  0  0  0
  9 10  2  0  0  0  0
 10 37  1  0  0  0  0
 10 11  1  0  0  0  0
 11 38  1  0  0  0  0
 12  6  1  0  0  0  0
 12 11  2  0  0  0  0
 13 19  1  0  0  0  0
 14 15  1  0  0  0  0
 15 16  2  0  0  0  0
 15 40  1  0  0  0  0
 16 41  1  0  0  0  0
 17 42  1  0  0  0  0
 17 16  1  0  0  0  0
 18 17  2  0  0  0  0
 19 18  1  0  0  0  0
 19 14  2  0  0  0  0
 20 26  1  0  0  0  0
 21 44  1  0  0  0  0
 21 22  1  0  0  0  0
 22 45  1  0  0  0  0
 23 22  2  0  0  0  0
 23 46  1  0  0  0  0
 24 23  1  0  0  0  0
 25 26  1  0  0  0  0
 25 24  2  0  0  0  0
 26 21  2  0  0  0  0
 27 33  1  0  0  0  0
 28 29  1  0  0  0  0
 28 49  1  0  0  0  0
 29 50  1  0  0  0  0
 30 51  1  0  0  0  0
 30 29  2  0  0  0  0
 31 30  1  0  0  0  0
 32 31  2  0  0  0  0
 32 33  1  0  0  0  0
 33 28  2  0  0  0  0
 34  7  1  0  0  0  0
 35  8  1  0  0  0  0
 36  9  1  0  0  0  0
 39 14  1  0  0  0  0
 43 18  1  0  0  0  0
 47 24  1  0  0  0  0
 48 25  1  0  0  0  0
 52 31  1  0  0  0  0
 53 32  1  0  0  0  0
M  END
