1,4
 OpenBabel05122313063D

 34 37  0  0  1  0  0  0  0  0999 V2000
    1.4593   -0.2757   -1.5961 S   0  0  0  0  0  1  0  0  0  0  0  0
    2.9027   -0.4272   -0.7048 C   0  0  0  0  0  0  0  0  0  0  0  0
    2.9160   -0.3714    0.6920 C   0  0  0  0  0  0  0  0  0  0  0  0
    1.4880   -0.1398    1.5905 S   0  0  0  0  0  1  0  0  0  0  0  0
    4.3562   -0.4168    1.1360 C   0  0  2  0  0  0  0  0  0  0  0  0
    5.0858    0.8990    0.7131 C   0  0  2  0  0  0  0  0  0  0  0  0
    4.4820    2.3152    1.0058 C   0  0  1  0  0  0  0  0  0  0  0  0
    5.5712    3.2625    0.5003 C   0  0  0  0  0  0  0  0  0  0  0  0
    5.5592    3.2057   -0.8515 C   0  0  0  0  0  0  0  0  0  0  0  0
    4.4614    2.2213   -1.2568 C   0  0  1  0  0  0  0  0  0  0  0  0
    5.0730    0.8343   -0.8592 C   0  0  2  0  0  0  0  0  0  0  0  0
    6.1184    0.8431    1.1087 H   0  0  0  0  0  0  0  0  0  0  0  0
    4.3347   -0.5129   -1.1629 C   0  0  1  0  0  0  0  0  0  0  0  0
    4.9015   -1.3861    0.0184 C   0  0  0  0  0  0  0  0  0  0  0  0
    4.3255   -2.6511    0.2032 O   0  0  0  0  0  0  0  0  0  0  0  0
    4.3516   -3.4961   -0.9375 C   0  0  0  0  0  0  0  0  0  0  0  0
    4.0963   -4.5156   -0.5913 H   0  0  0  0  0  0  0  0  0  0  0  0
    5.3568   -3.5149   -1.4130 H   0  0  0  0  0  0  0  0  0  0  0  0
    3.5966   -3.1795   -1.6925 H   0  0  0  0  0  0  0  0  0  0  0  0
    6.2967   -1.4753   -0.1126 O   0  0  0  0  0  0  0  0  0  0  0  0
    6.9669   -2.0428    1.0045 C   0  0  0  0  0  0  0  0  0  0  0  0
    8.0170   -2.2095    0.6988 H   0  0  0  0  0  0  0  0  0  0  0  0
    6.5111   -3.0098    1.3058 H   0  0  0  0  0  0  0  0  0  0  0  0
    6.9578   -1.3575    1.8830 H   0  0  0  0  0  0  0  0  0  0  0  0
    4.5194   -0.7351    2.1814 H   0  0  0  0  0  0  0  0  0  0  0  0
    4.5029   -0.8982   -2.1845 H   0  0  0  0  0  0  0  0  0  0  0  0
    6.0959    0.7340   -1.2660 H   0  0  0  0  0  0  0  0  0  0  0  0
    3.4433    2.5128   -0.1264 C   0  0  0  0  0  0  0  0  0  0  0  0
    4.1349    2.4687    2.0449 H   0  0  0  0  0  0  0  0  0  0  0  0
    2.5636    1.8506   -0.0909 H   0  0  0  0  0  0  0  0  0  0  0  0
    3.0917    3.5622   -0.1662 H   0  0  0  0  0  0  0  0  0  0  0  0
    4.0959    2.2886   -2.2986 H   0  0  0  0  0  0  0  0  0  0  0  0
    6.2745    3.6734   -1.5437 H   0  0  0  0  0  0  0  0  0  0  0  0
    6.2980    3.7863    1.1383 H   0  0  0  0  0  0  0  0  0  0  0  0
  1  2  1  0  0  0  0
  2  3  2  0  0  0  0
  3  5  1  0  0  0  0
  3  4  1  0  0  0  0
  5 25  1  1  0  0  0
  6  7  1  0  0  0  0
  6 12  1  1  0  0  0
  6  5  1  0  0  0  0
  7 29  1  1  0  0  0
  8  7  1  0  0  0  0
  8 34  1  0  0  0  0
  9  8  2  0  0  0  0
 10 32  1  6  0  0  0
 10 11  1  0  0  0  0
 10  9  1  0  0  0  0
 10 28  1  0  0  0  0
 11 27  1  6  0  0  0
 11  6  1  0  0  0  0
 13 26  1  6  0  0  0
 13 11  1  0  0  0  0
 13  2  1  0  0  0  0
 13 14  1  0  0  0  0
 14 15  1  0  0  0  0
 14  5  1  0  0  0  0
 16 17  1  0  0  0  0
 16 15  1  0  0  0  0
 18 16  1  0  0  0  0
 19 16  1  0  0  0  0
 20 14  1  0  0  0  0
 20 21  1  0  0  0  0
 21 23  1  0  0  0  0
 21 24  1  0  0  0  0
 22 21  1  0  0  0  0
 28 30  1  0  0  0  0
 28  7  1  0  0  0  0
 31 28  1  0  0  0  0
 33  9  1  0  0  0  0
M  END
