1,3
 OpenBabel05122313063D

 37 38  0  0  1  0  0  0  0  0999 V2000
    0.9144   -1.9880    1.0489 S   0  0  0  0  0  0  0  0  0  0  0  0
   -1.8518    3.2976    0.0512 S   0  0  0  0  0  0  0  0  0  0  0  0
    1.8577    1.1607    1.3533 S   0  0  0  0  0  0  0  0  0  0  0  0
   -0.7415   -2.5881    0.4933 C   0  0  0  0  0  0  0  0  0  0  0  0
   -0.4880   -2.9042   -0.5425 H   0  0  0  0  0  0  0  0  0  0  0  0
   -0.9550   -3.4906    1.1022 H   0  0  0  0  0  0  0  0  0  0  0  0
   -1.9251   -1.6179    0.5062 C   0  0  2  0  0  0  0  0  0  0  0  0
   -2.1376   -1.3266    1.5627 H   0  0  0  0  0  0  0  0  0  0  0  0
   -3.1847   -2.3421   -0.0127 C   0  0  0  0  0  0  0  0  0  0  0  0
   -2.9853   -2.6885   -1.0510 H   0  0  0  0  0  0  0  0  0  0  0  0
   -3.3865   -3.2521    0.5917 H   0  0  0  0  0  0  0  0  0  0  0  0
   -4.4081   -1.4149   -0.0026 C   0  0  0  0  0  0  0  0  0  0  0  0
   -5.2835   -1.9426   -0.4348 H   0  0  0  0  0  0  0  0  0  0  0  0
   -4.6759   -1.1807    1.0521 H   0  0  0  0  0  0  0  0  0  0  0  0
   -4.1538   -0.1001   -0.7529 C   0  0  0  0  0  0  0  0  0  0  0  0
   -5.0412    0.5629   -0.6709 H   0  0  0  0  0  0  0  0  0  0  0  0
   -4.0116   -0.3077   -1.8374 H   0  0  0  0  0  0  0  0  0  0  0  0
   -2.9024    0.6173   -0.2141 C   0  0  1  0  0  0  0  0  0  0  0  0
   -3.0879    0.8498    0.8608 H   0  0  0  0  0  0  0  0  0  0  0  0
   -1.7046   -0.3374   -0.3081 C   0  0  0  0  0  0  0  0  0  0  0  0
   -0.7658    0.1596    0.0084 H   0  0  0  0  0  0  0  0  0  0  0  0
   -1.5196   -0.6113   -1.3705 H   0  0  0  0  0  0  0  0  0  0  0  0
   -2.6473    1.9595   -0.9237 C   0  0  0  0  0  0  0  0  0  0  0  0
   -3.6155    2.4275   -1.2011 H   0  0  0  0  0  0  0  0  0  0  0  0
   -2.0791    1.8171   -1.8677 H   0  0  0  0  0  0  0  0  0  0  0  0
   -0.0916    2.7967    0.1179 C   0  0  0  0  0  0  0  0  0  0  0  0
    0.1531    2.1770   -0.7701 H   0  0  0  0  0  0  0  0  0  0  0  0
    0.5144    3.7186    0.0187 H   0  0  0  0  0  0  0  0  0  0  0  0
    0.2341    2.0691    1.4220 C   0  0  0  0  0  0  0  0  0  0  0  0
   -0.5519    1.3255    1.6521 H   0  0  0  0  0  0  0  0  0  0  0  0
    0.3076    2.7715    2.2774 H   0  0  0  0  0  0  0  0  0  0  0  0
    1.6192    0.0291    2.7995 C   0  0  0  0  0  0  0  0  0  0  0  0
    2.6173   -0.4308    2.9471 H   0  0  0  0  0  0  0  0  0  0  0  0
    1.3961    0.6518    3.6904 H   0  0  0  0  0  0  0  0  0  0  0  0
    0.5437   -1.0248    2.5837 C   0  0  0  0  0  0  0  0  0  0  0  0
   -0.4596   -0.5668    2.4834 H   0  0  0  0  0  0  0  0  0  0  0  0
    0.5127   -1.7331    3.4372 H   0  0  0  0  0  0  0  0  0  0  0  0
  1 35  1  0  0  0  0
  2 26  1  0  0  0  0
  3 29  1  0  0  0  0
  3 32  1  0  0  0  0
  4  7  1  0  0  0  0
  4  1  1  0  0  0  0
  4  6  1  0  0  0  0
  5  4  1  0  0  0  0
  7  8  1  1  0  0  0
  9 12  1  0  0  0  0
  9  7  1  0  0  0  0
  9 11  1  0  0  0  0
 10  9  1  0  0  0  0
 12 14  1  0  0  0  0
 13 12  1  0  0  0  0
 15 16  1  0  0  0  0
 15 18  1  0  0  0  0
 15 12  1  0  0  0  0
 17 15  1  0  0  0  0
 18 19  1  1  0  0  0
 20 18  1  0  0  0  0
 20 21  1  0  0  0  0
 20  7  1  0  0  0  0
 22 20  1  0  0  0  0
 23 18  1  0  0  0  0
 23  2  1  0  0  0  0
 24 23  1  0  0  0  0
 25 23  1  0  0  0  0
 26 29  1  0  0  0  0
 27 26  1  0  0  0  0
 28 26  1  0  0  0  0
 29 30  1  0  0  0  0
 29 31  1  0  0  0  0
 32 33  1  0  0  0  0
 32 34  1  0  0  0  0
 35 32  1  0  0  0  0
 35 37  1  0  0  0  0
 36 35  1  0  0  0  0
M  END
