1,3
 OpenBabel05122313063D

 24 24  0  0  0  0  0  0  0  0999 V2000
    0.6034    1.7981   -0.7677 S   0  0  0  0  0  0  0  0  0  0  0  0
    0.2329   -0.0001    2.3867 S   0  0  0  0  0  0  0  0  0  0  0  0
    0.6035   -1.7980   -0.7678 S   0  0  0  0  0  0  0  0  0  0  0  0
    0.7830    2.4093    0.9577 C   0  0  0  0  0  0  0  0  0  0  0  0
    1.3125    1.4373    2.0108 C   0  0  0  0  0  0  0  0  0  0  0  0
    1.3126   -1.4374    2.0108 C   0  0  0  0  0  0  0  0  0  0  0  0
    0.7831   -2.4094    0.9575 C   0  0  0  0  0  0  0  0  0  0  0  0
    2.3385   -1.2901   -1.1560 C   0  0  0  0  0  0  0  0  0  0  0  0
    2.4442    0.0001   -1.9716 C   0  0  0  0  0  0  0  0  0  0  0  0
    2.3384    1.2903   -1.1560 C   0  0  0  0  0  0  0  0  0  0  0  0
   -0.2589    2.7247    1.1766 H   0  0  0  0  0  0  0  0  0  0  0  0
    1.4263    3.3140    0.9166 H   0  0  0  0  0  0  0  0  0  0  0  0
    2.3241    1.0588    1.7555 H   0  0  0  0  0  0  0  0  0  0  0  0
    1.4280    2.0110    2.9542 H   0  0  0  0  0  0  0  0  0  0  0  0
    1.4279   -2.0113    2.9541 H   0  0  0  0  0  0  0  0  0  0  0  0
    2.3242   -1.0589    1.7555 H   0  0  0  0  0  0  0  0  0  0  0  0
    1.4264   -3.3140    0.9162 H   0  0  0  0  0  0  0  0  0  0  0  0
   -0.2587   -2.7249    1.1764 H   0  0  0  0  0  0  0  0  0  0  0  0
    2.7591   -2.1398   -1.7298 H   0  0  0  0  0  0  0  0  0  0  0  0
    2.9157   -1.2027   -0.2131 H   0  0  0  0  0  0  0  0  0  0  0  0
    3.4404    0.0002   -2.4637 H   0  0  0  0  0  0  0  0  0  0  0  0
    1.7002    0.0001   -2.7979 H   0  0  0  0  0  0  0  0  0  0  0  0
    2.9157    1.2030   -0.2131 H   0  0  0  0  0  0  0  0  0  0  0  0
    2.7589    2.1400   -1.7298 H   0  0  0  0  0  0  0  0  0  0  0  0
  1  4  1  0  0  0  0
  3  7  1  0  0  0  0
  4 11  1  0  0  0  0
  4  5  1  0  0  0  0
  5  2  1  0  0  0  0
  5 14  1  0  0  0  0
  6  2  1  0  0  0  0
  6 15  1  0  0  0  0
  7 18  1  0  0  0  0
  7  6  1  0  0  0  0
  8  3  1  0  0  0  0
  8 20  1  0  0  0  0
  9  8  1  0  0  0  0
  9 10  1  0  0  0  0
 10  1  1  0  0  0  0
 10 23  1  0  0  0  0
 12  4  1  0  0  0  0
 13  5  1  0  0  0  0
 16  6  1  0  0  0  0
 17  7  1  0  0  0  0
 19  8  1  0  0  0  0
 21  9  1  0  0  0  0
 22  9  1  0  0  0  0
 24 10  1  0  0  0  0
M  END
