4
 OpenBabel05122313113D

 18 19  0  0  0  0  0  0  0  0999 V2000
   -1.6915   -0.5336    0.9574 N   0  0  0  0  0  0  0  0  0  0  0  0
   -1.5504   -0.6520   -1.2142 N   0  0  0  0  0  0  0  0  0  0  0  0
   -1.1633   -0.5713   -2.1544 H   0  0  0  0  0  0  0  0  0  0  0  0
   -0.8337   -0.3289   -0.0921 C   0  0  0  0  0  2  0  0  0  0  0  0
   -2.9411   -0.9752    0.5054 C   0  0  0  0  0  0  0  0  0  0  0  0
   -2.8516   -1.0526   -0.9050 C   0  0  0  0  0  0  0  0  0  0  0  0
   -3.9356   -1.4675   -1.6883 C   0  0  0  0  0  0  0  0  0  0  0  0
   -3.8686   -1.5291   -2.7837 H   0  0  0  0  0  0  0  0  0  0  0  0
   -5.1160   -1.8024   -1.0073 C   0  0  0  0  0  0  0  0  0  0  0  0
   -5.9916   -2.1327   -1.5845 H   0  0  0  0  0  0  0  0  0  0  0  0
   -5.2062   -1.7258    0.4004 C   0  0  0  0  0  0  0  0  0  0  0  0
   -6.1507   -1.9974    0.8935 H   0  0  0  0  0  0  0  0  0  0  0  0
   -4.1196   -1.3105    1.1852 C   0  0  0  0  0  0  0  0  0  0  0  0
   -4.1946   -1.2506    2.2798 H   0  0  0  0  0  0  0  0  0  0  0  0
   -1.3541   -0.3104    2.3517 C   0  0  0  0  0  0  0  0  0  0  0  0
   -0.2721   -0.0938    2.4160 H   0  0  0  0  0  0  0  0  0  0  0  0
   -1.5806   -1.2137    2.9521 H   0  0  0  0  0  0  0  0  0  0  0  0
   -1.9250    0.5461    2.7647 H   0  0  0  0  0  0  0  0  0  0  0  0
  1 15  1  0  0  0  0
  2  6  1  0  0  0  0
  2  4  1  0  0  0  0
  3  2  1  0  0  0  0
  4  1  1  0  0  0  0
  5  1  1  0  0  0  0
  5 13  1  0  0  0  0
  6  5  2  0  0  0  0
  7  9  2  0  0  0  0
  7  6  1  0  0  0  0
  8  7  1  0  0  0  0
  9 11  1  0  0  0  0
 10  9  1  0  0  0  0
 11 12  1  0  0  0  0
 11 13  2  0  0  0  0
 13 14  1  0  0  0  0
 15 16  1  0  0  0  0
 15 18  1  0  0  0  0
 15 17  1  0  0  0  0
M  END
