4
 OpenBabel05122313113D

 30 30  0  0  1  0  0  0  0  0999 V2000
    0.7373   -3.4007   -0.2291 C   0  0  0  0  0  0  0  0  0  0  0  0
   -0.7307   -3.4031   -0.2301 C   0  0  0  0  0  0  0  0  0  0  0  0
   -1.4495   -2.8123    0.8459 C   0  0  0  0  0  0  0  0  0  0  0  0
   -0.7246   -2.0100    1.8215 C   0  0  2  0  0  3  0  0  0  0  0  0
    0.7241   -2.0083    1.8230 C   0  0  2  0  0  3  0  0  0  0  0  0
    1.4527   -2.8085    0.8485 C   0  0  0  0  0  0  0  0  0  0  0  0
    1.4342   -4.0450   -1.3957 C   0  0  0  0  0  0  0  0  0  0  0  0
   -1.4235   -4.0501   -1.3976 C   0  0  0  0  0  0  0  0  0  0  0  0
   -2.9415   -2.9462    1.0010 C   0  0  0  0  0  0  0  0  0  0  0  0
   -1.5116   -1.3281    2.9136 C   0  0  0  0  0  0  0  0  0  0  0  0
    1.5075   -1.3247    2.9166 C   0  0  0  0  0  0  0  0  0  0  0  0
    2.9446   -2.9393    1.0064 C   0  0  0  0  0  0  0  0  0  0  0  0
    1.1988   -5.1266   -1.4561 H   0  0  0  0  0  0  0  0  0  0  0  0
    2.5295   -3.9311   -1.3519 H   0  0  0  0  0  0  0  0  0  0  0  0
    1.0925   -3.5713   -2.3379 H   0  0  0  0  0  0  0  0  0  0  0  0
   -1.1794   -5.1296   -1.4608 H   0  0  0  0  0  0  0  0  0  0  0  0
   -1.0860   -3.5714   -2.3389 H   0  0  0  0  0  0  0  0  0  0  0  0
   -2.5196   -3.9452   -1.3528 H   0  0  0  0  0  0  0  0  0  0  0  0
   -3.3834   -3.6439    0.2718 H   0  0  0  0  0  0  0  0  0  0  0  0
   -3.4650   -1.9758    0.8961 H   0  0  0  0  0  0  0  0  0  0  0  0
   -3.1726   -3.3325    2.0142 H   0  0  0  0  0  0  0  0  0  0  0  0
   -1.7756   -2.0571    3.7090 H   0  0  0  0  0  0  0  0  0  0  0  0
   -2.4582   -0.9040    2.5313 H   0  0  0  0  0  0  0  0  0  0  0  0
   -0.9465   -0.5120    3.3943 H   0  0  0  0  0  0  0  0  0  0  0  0
    1.7723   -2.0533    3.7121 H   0  0  0  0  0  0  0  0  0  0  0  0
    0.9394   -0.5104    3.3969 H   0  0  0  0  0  0  0  0  0  0  0  0
    2.4535   -0.8979    2.5360 H   0  0  0  0  0  0  0  0  0  0  0  0
    3.3895   -3.6349    0.2769 H   0  0  0  0  0  0  0  0  0  0  0  0
    3.1743   -3.3269    2.0194 H   0  0  0  0  0  0  0  0  0  0  0  0
    3.4664   -1.9676    0.9043 H   0  0  0  0  0  0  0  0  0  0  0  0
  1  6  2  0  0  0  0
  2  1  1  0  0  0  0
  2  3  2  0  0  0  0
  3  9  1  0  0  0  0
  3  4  1  0  0  0  0
  4  5  1  0  0  0  0
  4 10  1  1  0  0  0
  5 11  1  1  0  0  0
  6 12  1  0  0  0  0
  6  5  1  0  0  0  0
  7 14  1  0  0  0  0
  7  1  1  0  0  0  0
  8 18  1  0  0  0  0
  8  2  1  0  0  0  0
  9 21  1  0  0  0  0
 10 24  1  0  0  0  0
 10 22  1  0  0  0  0
 11 26  1  0  0  0  0
 11 25  1  0  0  0  0
 12 29  1  0  0  0  0
 13  7  1  0  0  0  0
 15  7  1  0  0  0  0
 16  8  1  0  0  0  0
 17  8  1  0  0  0  0
 19  9  1  0  0  0  0
 20  9  1  0  0  0  0
 23 10  1  0  0  0  0
 27 11  1  0  0  0  0
 28 12  1  0  0  0  0
 30 12  1  0  0  0  0
M  END
