14
 OpenBabel05122313113D

 33 34  0  0  1  0  0  0  0  0999 V2000
    5.8612   -0.1928    0.2606 Si  0  0  0  0  0  0  0  0  0  0  0  0
    7.2056    0.8813   -0.4946 C   0  0  0  0  0  0  0  0  0  0  0  0
    6.4835   -1.3739    1.5813 C   0  0  0  0  0  0  0  0  0  0  0  0
    4.8530   -1.0817   -1.0681 C   0  0  0  0  0  0  0  0  0  0  0  0
    3.8288   -2.0539   -0.7760 C   0  0  0  0  0  3  0  0  0  0  0  0
    2.9646   -2.1935   -1.9108 C   0  0  0  0  0  0  0  0  0  0  0  0
    3.4065   -1.2516   -2.8811 C   0  0  0  0  0  0  0  0  0  0  0  0
    4.5534   -0.5679   -2.3721 C   0  0  0  0  0  0  0  0  0  0  0  0
    1.8478   -3.1818   -2.0646 C   0  0  0  0  0  0  0  0  0  0  0  0
    4.3974    0.8359    0.8628 C   0  0  1  0  0  3  0  0  0  0  0  0
    3.9410    2.0716    0.2928 C   0  0  0  0  0  3  0  0  0  0  0  0
    2.5903    2.3193    0.7079 C   0  0  0  0  0  0  0  0  0  0  0  0
    2.1796    1.1915    1.4750 C   0  0  0  0  0  0  0  0  0  0  0  0
    3.2739    0.2804    1.5724 C   0  0  0  0  0  3  0  0  0  0  0  0
    1.7964    3.5723    0.4896 C   0  0  0  0  0  0  0  0  0  0  0  0
    6.7944    1.5583   -1.2702 H   0  0  0  0  0  0  0  0  0  0  0  0
    7.9886    0.2554   -0.9685 H   0  0  0  0  0  0  0  0  0  0  0  0
    7.6892    1.5073    0.2823 H   0  0  0  0  0  0  0  0  0  0  0  0
    6.9502   -0.8149    2.4174 H   0  0  0  0  0  0  0  0  0  0  0  0
    7.2398   -2.0683    1.1624 H   0  0  0  0  0  0  0  0  0  0  0  0
    5.6566   -1.9822    1.9992 H   0  0  0  0  0  0  0  0  0  0  0  0
    3.7349   -2.6332    0.1519 H   0  0  0  0  0  0  0  0  0  0  0  0
    2.9565   -1.1034   -3.8704 H   0  0  0  0  0  0  0  0  0  0  0  0
    5.1230    0.2040   -2.9037 H   0  0  0  0  0  0  0  0  0  0  0  0
    0.9929   -2.7650   -2.6314 H   0  0  0  0  0  0  0  0  0  0  0  0
    1.4689   -3.5271   -1.0852 H   0  0  0  0  0  0  0  0  0  0  0  0
    2.2103   -4.0735   -2.6179 H   0  0  0  0  0  0  0  0  0  0  0  0
    4.5461    2.7552   -0.3174 H   0  0  0  0  0  0  0  0  0  0  0  0
    1.1873    1.0770    1.9277 H   0  0  0  0  0  0  0  0  0  0  0  0
    3.2612   -0.6748    2.1117 H   0  0  0  0  0  0  0  0  0  0  0  0
    0.8379    3.5377    1.0367 H   0  0  0  0  0  0  0  0  0  0  0  0
    1.5750    3.7673   -0.5810 H   0  0  0  0  0  0  0  0  0  0  0  0
    2.3646    4.4503    0.8586 H   0  0  0  0  0  0  0  0  0  0  0  0
  1  3  1  0  0  0  0
  2  1  1  0  0  0  0
  2 18  1  0  0  0  0
  3 21  1  0  0  0  0
  3 19  1  0  0  0  0
  4  5  1  0  0  0  0
  4  1  1  0  0  0  0
  5 22  1  0  0  0  0
  6  5  1  0  0  0  0
  7  8  1  0  0  0  0
  7  6  2  0  0  0  0
  8  4  2  0  0  0  0
  9  6  1  0  0  0  0
  9 26  1  0  0  0  0
 10  1  1  6  0  0  0
 10 14  1  0  0  0  0
 11 12  1  0  0  0  0
 11 10  1  0  0  0  0
 12 13  2  0  0  0  0
 13 14  1  0  0  0  0
 13 29  1  0  0  0  0
 14 30  1  0  0  0  0
 15 12  1  0  0  0  0
 15 33  1  0  0  0  0
 15 31  1  0  0  0  0
 16  2  1  0  0  0  0
 17  2  1  0  0  0  0
 20  3  1  0  0  0  0
 23  7  1  0  0  0  0
 24  8  1  0  0  0  0
 25  9  1  0  0  0  0
 27  9  1  0  0  0  0
 28 11  1  0  0  0  0
 32 15  1  0  0  0  0
M  END
