8
 OpenBabel05122313113D

 20 20  0  0  0  0  0  0  0  0999 V2000
    1.1287    1.4984   -1.3817 C   0  0  0  0  0  3  0  0  0  0  0  0
    1.8190    2.8147   -1.0372 C   0  0  0  0  0  0  0  0  0  0  0  0
    1.6742    3.1599    0.4584 C   0  0  0  0  0  0  0  0  0  0  0  0
    0.3425    2.7289    1.0351 C   0  0  0  0  0  0  0  0  0  0  0  0
   -0.9174    2.8784    0.4325 C   0  0  0  0  0  0  0  0  0  0  0  0
   -1.1738    3.5423   -0.9109 C   0  0  0  0  0  0  0  0  0  0  0  0
   -1.1901    2.5184   -2.0680 C   0  0  0  0  0  0  0  0  0  0  0  0
   -0.2068    1.3838   -1.8725 C   0  0  0  0  0  3  0  0  0  0  0  0
    1.8224    0.6855   -1.6429 H   0  0  0  0  0  0  0  0  0  0  0  0
    1.4178    3.6323   -1.6707 H   0  0  0  0  0  0  0  0  0  0  0  0
    2.8957    2.7368   -1.2915 H   0  0  0  0  0  0  0  0  0  0  0  0
    1.8447    4.2483    0.6347 H   0  0  0  0  0  0  0  0  0  0  0  0
    2.4663    2.6295    1.0268 H   0  0  0  0  0  0  0  0  0  0  0  0
    0.3437    2.5223    2.1192 H   0  0  0  0  0  0  0  0  0  0  0  0
   -1.7925    2.7417    1.0894 H   0  0  0  0  0  0  0  0  0  0  0  0
   -0.4142    4.3283   -1.0968 H   0  0  0  0  0  0  0  0  0  0  0  0
   -2.1495    4.0686   -0.8763 H   0  0  0  0  0  0  0  0  0  0  0  0
   -1.0184    3.0267   -3.0467 H   0  0  0  0  0  0  0  0  0  0  0  0
   -2.1961    2.0544   -2.1300 H   0  0  0  0  0  0  0  0  0  0  0  0
   -0.4427    0.4946   -2.4844 H   0  0  0  0  0  0  0  0  0  0  0  0
  1  2  1  0  0  0  0
  2  3  1  0  0  0  0
  3 12  1  0  0  0  0
  3 13  1  0  0  0  0
  3  4  1  0  0  0  0
  4 14  1  0  0  0  0
  5  4  2  0  0  0  0
  5 15  1  0  0  0  0
  6 17  1  0  0  0  0
  6  5  1  0  0  0  0
  7  8  1  0  0  0  0
  7  6  1  0  0  0  0
  8  1  1  0  0  0  0
  9  1  1  0  0  0  0
 10  2  1  0  0  0  0
 11  2  1  0  0  0  0
 16  6  1  0  0  0  0
 18  7  1  0  0  0  0
 19  7  1  0  0  0  0
 20  8  1  0  0  0  0
M  END
