20
 OpenBabel05122313113D

 76 81  0  0  1  0  0  0  0  0999 V2000
    6.1882   -0.7322    0.1526 C   0  0  0  0  0  0  0  0  0  0  0  0
    5.6178   -2.0251   -0.0773 C   0  0  0  0  0  0  0  0  0  0  0  0
    5.6764   -2.5951   -1.0137 H   0  0  0  0  0  0  0  0  0  0  0  0
    4.9266   -2.4487    1.1009 C   0  0  0  0  0  0  0  0  0  0  0  0
    4.3821   -3.3927    1.2208 H   0  0  0  0  0  0  0  0  0  0  0  0
    5.0481   -1.4214    2.0696 C   0  0  0  0  0  0  0  0  0  0  0  0
    4.6109   -1.4251    3.0746 H   0  0  0  0  0  0  0  0  0  0  0  0
    5.7931   -0.3539    1.4853 C   0  0  0  0  0  3  0  0  0  0  0  0
    6.0386    0.5937    1.9833 H   0  0  0  0  0  0  0  0  0  0  0  0
    6.6606    0.5111   -1.1934 Si  0  0  0  0  0  0  0  0  0  0  0  0
    7.8509    1.8186   -0.5571 C   0  0  0  0  0  0  0  0  0  0  0  0
    8.8362    1.3696   -0.3178 H   0  0  0  0  0  0  0  0  0  0  0  0
    7.4661    2.3043    0.3619 H   0  0  0  0  0  0  0  0  0  0  0  0
    8.0053    2.6094   -1.3189 H   0  0  0  0  0  0  0  0  0  0  0  0
    7.2519   -0.3518   -2.7543 C   0  0  0  0  0  0  0  0  0  0  0  0
    7.3913    0.3796   -3.5760 H   0  0  0  0  0  0  0  0  0  0  0  0
    6.5226   -1.1128   -3.0972 H   0  0  0  0  0  0  0  0  0  0  0  0
    8.2207   -0.8618   -2.5789 H   0  0  0  0  0  0  0  0  0  0  0  0
    4.9046    1.1811   -1.3844 C   0  0  2  0  0  3  0  0  0  0  0  0
    4.2371    1.9635   -0.3771 C   0  0  0  0  0  3  0  0  0  0  0  0
    4.7257    2.5330    0.4253 H   0  0  0  0  0  0  0  0  0  0  0  0
    2.8301    1.9030   -0.6030 C   0  0  0  0  0  0  0  0  0  0  0  0
    2.0634    2.4000    0.0022 H   0  0  0  0  0  0  0  0  0  0  0  0
    2.5845    1.0656   -1.7292 C   0  0  0  0  0  0  0  0  0  0  0  0
    3.8655    0.6045   -2.1850 C   0  0  0  0  0  3  0  0  0  0  0  0
    4.0123   -0.0915   -3.0222 H   0  0  0  0  0  0  0  0  0  0  0  0
    1.2456    0.7196   -2.3168 C   0  0  0  0  0  0  0  0  0  0  0  0
    1.2879   -0.3274   -2.6851 H   0  0  0  0  0  0  0  0  0  0  0  0
    1.0747    1.3481   -3.2197 H   0  0  0  0  0  0  0  0  0  0  0  0
    0.0829    0.8804   -1.3276 C   0  0  0  0  0  0  0  0  0  0  0  0
    0.4311    0.5257   -0.3334 H   0  0  0  0  0  0  0  0  0  0  0  0
   -0.1290    1.9599   -1.1770 H   0  0  0  0  0  0  0  0  0  0  0  0
   -1.2050    0.1463   -1.7243 C   0  0  0  0  0  0  0  0  0  0  0  0
   -0.9503   -0.8739   -2.0810 H   0  0  0  0  0  0  0  0  0  0  0  0
   -1.6684    0.6480   -2.6005 H   0  0  0  0  0  0  0  0  0  0  0  0
   -2.3335    0.0814   -0.5305 B   0  0  0  0  0  0  0  0  0  0  0  0
   -1.8157   -0.8819    0.6442 N   0  0  0  0  0  0  0  0  0  0  0  0
   -0.7097   -1.6270    0.6264 C   0  0  0  0  0  3  0  0  0  0  0  0
    0.0210   -1.6684   -0.1889 H   0  0  0  0  0  0  0  0  0  0  0  0
   -0.5789   -2.3568    1.7621 N   0  0  0  0  0  0  0  0  0  0  0  0
   -1.6708   -2.0682    2.5785 C   0  0  0  0  0  0  0  0  0  0  0  0
   -2.0311   -2.5240    3.8552 C   0  0  0  0  0  0  0  0  0  0  0  0
   -1.4121   -3.2428    4.4102 H   0  0  0  0  0  0  0  0  0  0  0  0
   -3.2195   -2.0111    4.3901 C   0  0  0  0  0  0  0  0  0  0  0  0
   -3.5443   -2.3383    5.3888 H   0  0  0  0  0  0  0  0  0  0  0  0
   -4.0095   -1.0774    3.6768 C   0  0  0  0  0  0  0  0  0  0  0  0
   -4.9333   -0.6974    4.1373 H   0  0  0  0  0  0  0  0  0  0  0  0
   -3.6465   -0.6202    2.4045 C   0  0  0  0  0  0  0  0  0  0  0  0
   -4.2541    0.1126    1.8587 H   0  0  0  0  0  0  0  0  0  0  0  0
   -2.4596   -1.1344    1.8580 C   0  0  0  0  0  0  0  0  0  0  0  0
    0.5396   -3.2197    2.0950 C   0  0  0  0  0  0  0  0  0  0  0  0
    1.2135   -3.2807    1.2209 H   0  0  0  0  0  0  0  0  0  0  0  0
    0.1752   -4.2327    2.3566 H   0  0  0  0  0  0  0  0  0  0  0  0
    1.1049   -2.7945    2.9480 H   0  0  0  0  0  0  0  0  0  0  0  0
   -2.4831    1.6179    0.0340 C   0  0  0  0  0  0  0  0  0  0  0  0
   -1.8363    2.1391    1.1667 C   0  0  0  0  0  0  0  0  0  0  0  0
   -1.1132    1.3447    1.9911 F   0  0  0  0  0  0  0  0  0  0  0  0
   -1.8523    3.5028    1.5137 C   0  0  0  0  0  0  0  0  0  0  0  0
   -1.2179    3.9363    2.6127 F   0  0  0  0  0  0  0  0  0  0  0  0
   -2.5232    4.4156    0.6883 C   0  0  0  0  0  0  0  0  0  0  0  0
   -2.5487    5.7176    0.9977 F   0  0  0  0  0  0  0  0  0  0  0  0
   -3.1586    3.9502   -0.4746 C   0  0  0  0  0  0  0  0  0  0  0  0
   -3.7882    4.8144   -1.2817 F   0  0  0  0  0  0  0  0  0  0  0  0
   -3.1123    2.5809   -0.7763 C   0  0  0  0  0  0  0  0  0  0  0  0
   -3.7049    2.2036   -1.9293 F   0  0  0  0  0  0  0  0  0  0  0  0
   -3.7411   -0.6420   -1.0104 C   0  0  0  0  0  0  0  0  0  0  0  0
   -3.6953   -1.8815   -1.6763 C   0  0  0  0  0  0  0  0  0  0  0  0
   -2.5105   -2.4980   -1.9017 F   0  0  0  0  0  0  0  0  0  0  0  0
   -4.8298   -2.5806   -2.1205 C   0  0  0  0  0  0  0  0  0  0  0  0
   -4.7099   -3.7533   -2.7577 F   0  0  0  0  0  0  0  0  0  0  0  0
   -6.1027   -2.0451   -1.8730 C   0  0  0  0  0  0  0  0  0  0  0  0
   -7.1997   -2.6915   -2.2820 F   0  0  0  0  0  0  0  0  0  0  0  0
   -6.2101   -0.8324   -1.1776 C   0  0  0  0  0  0  0  0  0  0  0  0
   -7.4192   -0.3252   -0.9045 F   0  0  0  0  0  0  0  0  0  0  0  0
   -5.0418   -0.1749   -0.7542 C   0  0  0  0  0  0  0  0  0  0  0  0
   -5.2512    0.9484   -0.0284 F   0  0  0  0  0  0  0  0  0  0  0  0
  1  8  1  0  0  0  0
  2  1  2  0  0  0  0
  2  4  1  0  0  0  0
  3  2  1  0  0  0  0
  4  5  1  0  0  0  0
  4  6  2  0  0  0  0
  6  7  1  0  0  0  0
  8  9  1  0  0  0  0
  8  6  1  0  0  0  0
 10 11  1  0  0  0  0
 10  1  1  0  0  0  0
 11 12  1  0  0  0  0
 11 13  1  0  0  0  0
 14 11  1  0  0  0  0
 15 18  1  0  0  0  0
 15 10  1  0  0  0  0
 16 15  1  0  0  0  0
 17 15  1  0  0  0  0
 19 10  1  1  0  0  0
 19 20  1  0  0  0  0
 20 21  1  0  0  0  0
 22 20  1  0  0  0  0
 22 23  1  0  0  0  0
 24 22  2  0  0  0  0
 25 24  1  0  0  0  0
 25 19  1  0  0  0  0
 26 25  1  0  0  0  0
 27 24  1  0  0  0  0
 27 30  1  0  0  0  0
 28 27  1  0  0  0  0
 29 27  1  0  0  0  0
 30 32  1  0  0  0  0
 30 31  1  0  0  0  0
 33 30  1  0  0  0  0
 33 36  1  0  0  0  0
 34 33  1  0  0  0  0
 35 33  1  0  0  0  0
 36 55  1  0  0  0  0
 36 37  1  0  0  0  0
 37 50  1  0  0  0  0
 38 37  1  0  0  0  0
 38 40  1  0  0  0  0
 39 38  1  0  0  0  0
 40 51  1  0  0  0  0
 40 41  1  0  0  0  0
 41 42  1  0  0  0  0
 42 44  2  0  0  0  0
 42 43  1  0  0  0  0
 44 45  1  0  0  0  0
 46 47  1  0  0  0  0
 46 44  1  0  0  0  0
 48 46  2  0  0  0  0
 49 48  1  0  0  0  0
 50 48  1  0  0  0  0
 50 41  2  0  0  0  0
 51 53  1  0  0  0  0
 51 54  1  0  0  0  0
 52 51  1  0  0  0  0
 55 56  1  0  0  0  0
 56 58  2  0  0  0  0
 56 57  1  0  0  0  0
 58 59  1  0  0  0  0
 60 61  1  0  0  0  0
 60 58  1  0  0  0  0
 62 60  2  0  0  0  0
 63 62  1  0  0  0  0
 64 62  1  0  0  0  0
 64 55  2  0  0  0  0
 65 64  1  0  0  0  0
 66 75  1  0  0  0  0
 66 36  1  0  0  0  0
 67 66  2  0  0  0  0
 68 67  1  0  0  0  0
 69 71  2  0  0  0  0
 69 67  1  0  0  0  0
 70 69  1  0  0  0  0
 71 73  1  0  0  0  0
 72 71  1  0  0  0  0
 73 74  1  0  0  0  0
 73 75  2  0  0  0  0
 75 76  1  0  0  0  0
M  END
