1
 OpenBabel05122313113D

 10  9  0  0  0  0  0  0  0  0999 V2000
   -1.2253   -0.1384   -0.7362 C   0  0  0  0  0  0  0  0  0  0  0  0
   -2.2753    0.2215    0.3550 C   0  0  0  0  0  0  0  0  0  0  0  0
   -3.7294   -0.3018    0.1130 C   0  0  0  0  0  0  0  0  0  0  0  0
   -1.5274   -1.4111   -1.1864 F   0  0  0  0  0  0  0  0  0  0  0  0
   -1.5460    0.6855   -1.8397 F   0  0  0  0  0  0  0  0  0  0  0  0
   -1.8747   -0.2737    1.5590 F   0  0  0  0  0  0  0  0  0  0  0  0
   -2.3387    1.5794    0.4722 F   0  0  0  0  0  0  0  0  0  0  0  0
   -4.5570    0.2756    0.9941 F   0  0  0  0  0  0  0  0  0  0  0  0
   -3.7710   -1.6328    0.2864 F   0  0  0  0  0  0  0  0  0  0  0  0
   -4.1322   -0.0014   -1.1298 F   0  0  0  0  0  0  0  0  0  0  0  0
  1  2  1  0  0  0  0
  2  7  1  0  0  0  0
  2  6  1  0  0  0  0
  3  9  1  0  0  0  0
  3  2  1  0  0  0  0
  3  8  1  0  0  0  0
  4  1  1  0  0  0  0
  5  1  1  0  0  0  0
 10  3  1  0  0  0  0
M  END
