3
 OpenBabel05122313113D

 25 25  0  0  1  0  0  0  0  0999 V2000
    1.8970   -0.8982    1.7417 C   0  0  0  0  0  0  0  0  0  0  0  0
    2.8446   -0.9338    0.6420 C   0  0  0  0  0  0  0  0  0  0  0  0
    2.4831   -2.0392   -0.2285 C   0  0  2  0  0  3  0  0  0  0  0  0
    1.3447   -2.7232    0.4011 C   0  0  0  0  0  0  0  0  0  0  0  0
    0.9987   -2.0528    1.6143 C   0  0  0  0  0  0  0  0  0  0  0  0
    1.9975   -0.0207    2.9479 C   0  0  0  0  0  0  0  0  0  0  0  0
    4.0501   -0.0543    0.5300 C   0  0  0  0  0  0  0  0  0  0  0  0
    3.2396   -2.5010   -1.4363 C   0  0  0  0  0  0  0  0  0  0  0  0
    0.6622   -3.9337   -0.1581 C   0  0  0  0  0  0  0  0  0  0  0  0
   -0.0602   -2.4329    2.6009 C   0  0  0  0  0  0  0  0  0  0  0  0
    2.5298   -0.5657    3.7581 H   0  0  0  0  0  0  0  0  0  0  0  0
    2.5600    0.9054    2.7320 H   0  0  0  0  0  0  0  0  0  0  0  0
    0.9953    0.2640    3.3173 H   0  0  0  0  0  0  0  0  0  0  0  0
    4.8078   -0.3552    1.2844 H   0  0  0  0  0  0  0  0  0  0  0  0
    4.5263   -0.1301   -0.4650 H   0  0  0  0  0  0  0  0  0  0  0  0
    3.7961    1.0081    0.7077 H   0  0  0  0  0  0  0  0  0  0  0  0
    4.0710   -3.1862   -1.1615 H   0  0  0  0  0  0  0  0  0  0  0  0
    2.5843   -3.0468   -2.1435 H   0  0  0  0  0  0  0  0  0  0  0  0
    3.6753   -1.6454   -1.9879 H   0  0  0  0  0  0  0  0  0  0  0  0
   -0.4048   -3.9759    0.1362 H   0  0  0  0  0  0  0  0  0  0  0  0
    0.7193   -3.9627   -1.2648 H   0  0  0  0  0  0  0  0  0  0  0  0
    1.1457   -4.8637    0.2099 H   0  0  0  0  0  0  0  0  0  0  0  0
   -0.6563   -1.5455    2.8918 H   0  0  0  0  0  0  0  0  0  0  0  0
   -0.7466   -3.1976    2.1884 H   0  0  0  0  0  0  0  0  0  0  0  0
    0.3938   -2.8582    3.5222 H   0  0  0  0  0  0  0  0  0  0  0  0
  1  6  1  0  0  0  0
  2  1  2  0  0  0  0
  3  8  1  1  0  0  0
  3  4  1  0  0  0  0
  3  2  1  0  0  0  0
  4  5  2  0  0  0  0
  5  1  1  0  0  0  0
  5 10  1  0  0  0  0
  6 13  1  0  0  0  0
  6 11  1  0  0  0  0
  7  2  1  0  0  0  0
  7 16  1  0  0  0  0
  7 14  1  0  0  0  0
  8 17  1  0  0  0  0
  9 20  1  0  0  0  0
  9 22  1  0  0  0  0
  9  4  1  0  0  0  0
 10 23  1  0  0  0  0
 10 25  1  0  0  0  0
 12  6  1  0  0  0  0
 15  7  1  0  0  0  0
 18  8  1  0  0  0  0
 19  8  1  0  0  0  0
 21  9  1  0  0  0  0
 24 10  1  0  0  0  0
M  END
