1
 OpenBabel05122313113D

 29 30  0  0  0  0  0  0  0  0999 V2000
    1.9965    0.0005   -0.2717 C   0  0  0  0  0  2  0  0  0  0  0  0
    2.8111    1.0930   -0.3403 N   0  0  0  0  0  0  0  0  0  0  0  0
    4.1505    0.7084   -0.4149 C   0  0  0  0  0  0  0  0  0  0  0  0
    4.1500   -0.7088   -0.4160 C   0  0  0  0  0  0  0  0  0  0  0  0
    5.3424   -1.4411   -0.4880 C   0  0  0  0  0  0  0  0  0  0  0  0
    6.5365   -0.7073   -0.5618 C   0  0  0  0  0  0  0  0  0  0  0  0
    6.5370    0.7054   -0.5607 C   0  0  0  0  0  0  0  0  0  0  0  0
    5.3435    1.4400   -0.4857 C   0  0  0  0  0  0  0  0  0  0  0  0
    5.3448    2.5382   -0.4673 H   0  0  0  0  0  0  0  0  0  0  0  0
    7.4953    1.2429   -0.6125 H   0  0  0  0  0  0  0  0  0  0  0  0
    7.4944   -1.2455   -0.6145 H   0  0  0  0  0  0  0  0  0  0  0  0
    5.3429   -2.5394   -0.4713 H   0  0  0  0  0  0  0  0  0  0  0  0
    2.8102   -1.0925   -0.3421 N   0  0  0  0  0  0  0  0  0  0  0  0
    2.3242   -2.4693   -0.2700 C   0  0  0  0  0  0  0  0  0  0  0  0
    2.4776   -3.0570    1.1071 C   0  0  0  0  0  0  0  0  0  0  0  0
    3.1206   -4.2071    1.3661 C   0  0  0  0  0  0  0  0  0  0  0  0
    3.5971   -4.7958    0.5631 H   0  0  0  0  0  0  0  0  0  0  0  0
    3.1867   -4.6107    2.3881 H   0  0  0  0  0  0  0  0  0  0  0  0
    2.0036   -2.4687    1.9146 H   0  0  0  0  0  0  0  0  0  0  0  0
    2.8537   -3.0745   -1.0344 H   0  0  0  0  0  0  0  0  0  0  0  0
    1.2530   -2.4168   -0.5605 H   0  0  0  0  0  0  0  0  0  0  0  0
    2.3261    2.4700   -0.2662 C   0  0  0  0  0  0  0  0  0  0  0  0
    2.4812    3.0562    1.1113 C   0  0  0  0  0  0  0  0  0  0  0  0
    3.1255    4.2055    1.3709 C   0  0  0  0  0  0  0  0  0  0  0  0
    3.1929    4.6080    2.3933 H   0  0  0  0  0  0  0  0  0  0  0  0
    3.6018    4.7946    0.5681 H   0  0  0  0  0  0  0  0  0  0  0  0
    2.0073    2.4675    1.9186 H   0  0  0  0  0  0  0  0  0  0  0  0
    2.8552    3.0757   -1.0305 H   0  0  0  0  0  0  0  0  0  0  0  0
    1.2546    2.4186   -0.5557 H   0  0  0  0  0  0  0  0  0  0  0  0
  2  1  1  0  0  0  0
  2 22  1  0  0  0  0
  3  2  1  0  0  0  0
  4  3  1  0  0  0  0
  4 13  1  0  0  0  0
  5 12  1  0  0  0  0
  5  4  2  0  0  0  0
  6  7  2  0  0  0  0
  6  5  1  0  0  0  0
  7  8  1  0  0  0  0
  8  9  1  0  0  0  0
  8  3  2  0  0  0  0
 10  7  1  0  0  0  0
 11  6  1  0  0  0  0
 13  1  1  0  0  0  0
 13 14  1  0  0  0  0
 14 15  1  0  0  0  0
 15 16  2  0  0  0  0
 15 19  1  0  0  0  0
 16 18  1  0  0  0  0
 17 16  1  0  0  0  0
 20 14  1  0  0  0  0
 21 14  1  0  0  0  0
 22 23  1  0  0  0  0
 23 24  2  0  0  0  0
 23 27  1  0  0  0  0
 24 25  1  0  0  0  0
 26 24  1  0  0  0  0
 28 22  1  0  0  0  0
 29 22  1  0  0  0  0
M  END
