13
 OpenBabel05122313113D

 25 26  0  0  0  0  0  0  0  0999 V2000
  -10.5267   -1.6888   -0.8814 C   0  0  0  0  0  0  0  0  0  0  0  0
   -9.9520   -2.3514   -1.5455 H   0  0  0  0  0  0  0  0  0  0  0  0
   -7.7777    0.0740    0.4550 N   0  0  0  0  0  2  0  0  0  0  0  0
   -3.5470    0.2128    0.1730 C   0  0  0  0  0  0  0  0  0  0  0  0
   -6.3824    0.0671    0.3136 C   0  0  0  0  0  0  0  0  0  0  0  0
  -12.6144   -0.8835    0.0633 C   0  0  0  0  0  0  0  0  0  0  0  0
  -13.7122   -0.9299    0.1294 H   0  0  0  0  0  0  0  0  0  0  0  0
   -8.4037   -0.7764   -0.2543 N   0  0  0  0  0  2  0  0  0  0  0  0
   -4.2768   -0.7336   -0.6096 C   0  0  0  0  0  0  0  0  0  0  0  0
   -3.7137   -1.4078   -1.2718 H   0  0  0  0  0  0  0  0  0  0  0  0
  -11.9236   -1.7502   -0.7998 C   0  0  0  0  0  0  0  0  0  0  0  0
  -12.4788   -2.4774   -1.4118 H   0  0  0  0  0  0  0  0  0  0  0  0
   -0.8912    0.3394    0.0355 C   0  0  0  0  0  1  0  0  0  0  0  0
  -10.5069    0.1133    0.7687 C   0  0  0  0  0  0  0  0  0  0  0  0
   -9.9194    0.8263    1.3642 H   0  0  0  0  0  0  0  0  0  0  0  0
   -5.6702    1.0085    1.0930 C   0  0  0  0  0  0  0  0  0  0  0  0
   -6.2526    1.6735    1.7482 H   0  0  0  0  0  0  0  0  0  0  0  0
   -2.1309    0.2796    0.0992 C   0  0  0  0  0  2  0  0  0  0  0  0
   -5.6626   -0.8062   -0.5425 C   0  0  0  0  0  0  0  0  0  0  0  0
   -6.2363   -1.5293   -1.1395 H   0  0  0  0  0  0  0  0  0  0  0  0
  -11.9001    0.0461    0.8451 C   0  0  0  0  0  0  0  0  0  0  0  0
  -12.4448    0.7242    1.5209 H   0  0  0  0  0  0  0  0  0  0  0  0
   -4.2804    1.0836    1.0267 C   0  0  0  0  0  0  0  0  0  0  0  0
   -3.7288    1.8159    1.6333 H   0  0  0  0  0  0  0  0  0  0  0  0
   -9.8067   -0.7586   -0.1000 C   0  0  0  0  0  0  0  0  0  0  0  0
  1 11  2  0  0  0  0
  1 25  1  0  0  0  0
  2  1  1  0  0  0  0
  4 23  1  0  0  0  0
  5  3  1  0  0  0  0
  5 16  1  0  0  0  0
  6  7  1  0  0  0  0
  6 21  2  0  0  0  0
  8 25  1  0  0  0  0
  8  3  1  0  0  0  0
  9 19  1  0  0  0  0
  9  4  2  0  0  0  0
 10  9  1  0  0  0  0
 11  6  1  0  0  0  0
 12 11  1  0  0  0  0
 13 18  1  0  0  0  0
 14 21  1  0  0  0  0
 14 15  1  0  0  0  0
 16 17  1  0  0  0  0
 18  4  1  0  0  0  0
 19  5  2  0  0  0  0
 20 19  1  0  0  0  0
 21 22  1  0  0  0  0
 23 16  2  0  0  0  0
 23 24  1  0  0  0  0
 25 14  2  0  0  0  0
M  END
