17
 OpenBabel05122313113D

 24 24  0  0  1  0  0  0  0  0999 V2000
   -0.7569    1.1099   -2.9979 C   0  0  0  0  0  0  0  0  0  0  0  0
    0.0814    1.1093   -3.7257 H   0  0  0  0  0  0  0  0  0  0  0  0
   -1.6960    1.1450   -3.5848 H   0  0  0  0  0  0  0  0  0  0  0  0
   -0.7349    0.1530   -2.4386 H   0  0  0  0  0  0  0  0  0  0  0  0
    0.3272    2.8161    0.2568 C   0  0  0  0  0  0  0  0  0  0  0  0
   -0.6410    3.2624    0.5308 H   0  0  0  0  0  0  0  0  0  0  0  0
    2.5279    1.9097    0.9863 C   0  0  0  0  0  0  0  0  0  0  0  0
    0.4681    2.2218   -1.0594 C   0  0  2  0  0  3  0  0  0  0  0  0
   -0.6840    2.3067   -2.0433 C   0  0  0  0  0  0  0  0  0  0  0  0
   -1.6055    2.2891   -1.4219 H   0  0  0  0  0  0  0  0  0  0  0  0
    1.3162    2.6589    1.2551 C   0  0  0  0  0  0  0  0  0  0  0  0
    1.1124    3.0020    2.2796 H   0  0  0  0  0  0  0  0  0  0  0  0
   -0.6346    3.6453   -2.8005 C   0  0  0  0  0  0  0  0  0  0  0  0
   -0.6200    4.5081   -2.1043 H   0  0  0  0  0  0  0  0  0  0  0  0
   -1.5177    3.7554   -3.4619 H   0  0  0  0  0  0  0  0  0  0  0  0
    0.2757    3.7075   -3.4325 H   0  0  0  0  0  0  0  0  0  0  0  0
    1.6803    1.5249   -1.3331 C   0  0  0  0  0  3  0  0  0  0  0  0
    1.8096    1.0016   -2.2907 H   0  0  0  0  0  0  0  0  0  0  0  0
    2.6966    1.3772   -0.3229 C   0  0  0  0  0  0  0  0  0  0  0  0
    3.5747    0.7504   -0.5345 H   0  0  0  0  0  0  0  0  0  0  0  0
    3.5197    1.6484    2.0817 C   0  0  0  0  0  0  0  0  0  0  0  0
    4.2986    0.9361    1.7506 H   0  0  0  0  0  0  0  0  0  0  0  0
    2.9949    1.2069    2.9542 H   0  0  0  0  0  0  0  0  0  0  0  0
    4.0118    2.5912    2.3986 H   0  0  0  0  0  0  0  0  0  0  0  0
  1  4  1  0  0  0  0
  1  9  1  0  0  0  0
  2  1  1  0  0  0  0
  3  1  1  0  0  0  0
  5  6  1  0  0  0  0
  5 11  2  0  0  0  0
  7 11  1  0  0  0  0
  7 21  1  0  0  0  0
  8  9  1  1  0  0  0
  8  5  1  0  0  0  0
  9 10  1  0  0  0  0
 11 12  1  0  0  0  0
 13 14  1  0  0  0  0
 13  9  1  0  0  0  0
 15 13  1  0  0  0  0
 16 13  1  0  0  0  0
 17  8  1  0  0  0  0
 17 19  1  0  0  0  0
 18 17  1  0  0  0  0
 19  7  2  0  0  0  0
 20 19  1  0  0  0  0
 21 24  1  0  0  0  0
 21 23  1  0  0  0  0
 22 21  1  0  0  0  0
M  END
