4
 OpenBabel05122313113D

 67 69  0  0  0  0  0  0  0  0999 V2000
    1.0593    0.3269   -0.9545 N   0  0  0  0  0  0  0  0  0  0  0  0
    0.6442    0.5689   -2.2040 N   0  0  0  0  0  2  0  0  0  0  0  0
   -0.6744    0.5358   -2.0895 N   0  0  0  0  0  0  0  0  0  0  0  0
    0.0583    0.1330   -0.0197 C   0  0  0  0  0  3  0  0  0  0  0  0
   -1.0984    0.2761   -0.8055 C   0  0  0  0  0  0  0  0  0  0  0  0
   -1.5069    0.7554   -3.2610 C   0  0  0  0  0  0  0  0  0  0  0  0
   -2.5248    0.1406   -0.4370 C   0  0  0  0  0  0  0  0  0  0  0  0
   -3.2620    1.2987   -0.0682 C   0  0  0  0  0  0  0  0  0  0  0  0
   -4.6160    1.1440    0.2767 C   0  0  0  0  0  0  0  0  0  0  0  0
   -5.2164   -0.1226    0.2728 C   0  0  0  0  0  0  0  0  0  0  0  0
   -4.4704   -1.2583   -0.0623 C   0  0  0  0  0  0  0  0  0  0  0  0
   -3.1132   -1.1517   -0.4215 C   0  0  0  0  0  0  0  0  0  0  0  0
   -2.5597    2.6464    0.0550 C   0  0  0  0  0  0  0  0  0  0  0  0
   -3.4509    3.8480   -0.2833 C   0  0  0  0  0  0  0  0  0  0  0  0
   -1.9492    2.7759    1.4649 C   0  0  0  0  0  0  0  0  0  0  0  0
   -2.2898   -2.4011   -0.7144 C   0  0  0  0  0  0  0  0  0  0  0  0
   -2.9860   -3.3594   -1.6926 C   0  0  0  0  0  0  0  0  0  0  0  0
   -1.9048   -3.1104    0.5979 C   0  0  0  0  0  0  0  0  0  0  0  0
    2.4702    0.2244   -0.6820 C   0  0  0  0  0  0  0  0  0  0  0  0
    3.0527   -1.0620   -0.6725 C   0  0  0  0  0  0  0  0  0  0  0  0
    4.4292   -1.1365   -0.3855 C   0  0  0  0  0  0  0  0  0  0  0  0
    5.1744    0.0181   -0.1214 C   0  0  0  0  0  0  0  0  0  0  0  0
    4.5582    1.2774   -0.1201 C   0  0  0  0  0  0  0  0  0  0  0  0
    3.1857    1.4099   -0.3945 C   0  0  0  0  0  0  0  0  0  0  0  0
    2.2422   -2.3277   -0.9193 C   0  0  0  0  0  0  0  0  0  0  0  0
    2.1724   -3.1916    0.3531 C   0  0  0  0  0  0  0  0  0  0  0  0
    2.7792   -3.1166   -2.1247 C   0  0  0  0  0  0  0  0  0  0  0  0
    2.4676    2.7476   -0.2765 C   0  0  0  0  0  0  0  0  0  0  0  0
    1.9879    2.9393    1.1765 C   0  0  0  0  0  0  0  0  0  0  0  0
    3.3068    3.9391   -0.7543 C   0  0  0  0  0  0  0  0  0  0  0  0
   -2.1833   -0.1092   -3.3997 H   0  0  0  0  0  0  0  0  0  0  0  0
   -0.8435    0.8706   -4.1350 H   0  0  0  0  0  0  0  0  0  0  0  0
   -2.1198    1.6665   -3.1207 H   0  0  0  0  0  0  0  0  0  0  0  0
   -5.2092    2.0237    0.5653 H   0  0  0  0  0  0  0  0  0  0  0  0
   -6.2773   -0.2256    0.5479 H   0  0  0  0  0  0  0  0  0  0  0  0
   -4.9487   -2.2488   -0.0379 H   0  0  0  0  0  0  0  0  0  0  0  0
   -1.7123    2.6481   -0.6655 H   0  0  0  0  0  0  0  0  0  0  0  0
   -2.8530    4.7814   -0.2836 H   0  0  0  0  0  0  0  0  0  0  0  0
   -4.2589    3.9847    0.4643 H   0  0  0  0  0  0  0  0  0  0  0  0
   -3.9267    3.7426   -1.2796 H   0  0  0  0  0  0  0  0  0  0  0  0
   -2.7479    2.7748    2.2348 H   0  0  0  0  0  0  0  0  0  0  0  0
   -1.3744    3.7198    1.5622 H   0  0  0  0  0  0  0  0  0  0  0  0
   -1.2658    1.9304    1.6869 H   0  0  0  0  0  0  0  0  0  0  0  0
   -1.3430   -2.0717   -1.1934 H   0  0  0  0  0  0  0  0  0  0  0  0
   -2.3139   -4.2029   -1.9499 H   0  0  0  0  0  0  0  0  0  0  0  0
   -3.2737   -2.8489   -2.6348 H   0  0  0  0  0  0  0  0  0  0  0  0
   -3.9059   -3.7991   -1.2554 H   0  0  0  0  0  0  0  0  0  0  0  0
   -1.3254   -2.4487    1.2762 H   0  0  0  0  0  0  0  0  0  0  0  0
   -1.2817   -4.0043    0.3887 H   0  0  0  0  0  0  0  0  0  0  0  0
   -2.8099   -3.4449    1.1460 H   0  0  0  0  0  0  0  0  0  0  0  0
    4.9214   -2.1204   -0.3642 H   0  0  0  0  0  0  0  0  0  0  0  0
    6.2496   -0.0635    0.0990 H   0  0  0  0  0  0  0  0  0  0  0  0
    5.1530    2.1732    0.1091 H   0  0  0  0  0  0  0  0  0  0  0  0
    1.2042   -2.0230   -1.1633 H   0  0  0  0  0  0  0  0  0  0  0  0
    1.7417   -2.6310    1.2096 H   0  0  0  0  0  0  0  0  0  0  0  0
    3.1796   -3.5486    0.6522 H   0  0  0  0  0  0  0  0  0  0  0  0
    1.5376   -4.0844    0.1769 H   0  0  0  0  0  0  0  0  0  0  0  0
    2.1430   -4.0037   -2.3208 H   0  0  0  0  0  0  0  0  0  0  0  0
    3.8110   -3.4831   -1.9454 H   0  0  0  0  0  0  0  0  0  0  0  0
    2.7966   -2.4928   -3.0411 H   0  0  0  0  0  0  0  0  0  0  0  0
    1.5680    2.6991   -0.9252 H   0  0  0  0  0  0  0  0  0  0  0  0
    1.3738    2.0787    1.5147 H   0  0  0  0  0  0  0  0  0  0  0  0
    1.3789    3.8614    1.2741 H   0  0  0  0  0  0  0  0  0  0  0  0
    2.8545    3.0218    1.8642 H   0  0  0  0  0  0  0  0  0  0  0  0
    4.1812    4.1190   -0.0958 H   0  0  0  0  0  0  0  0  0  0  0  0
    2.6979    4.8654   -0.7395 H   0  0  0  0  0  0  0  0  0  0  0  0
    3.6816    3.7889   -1.7866 H   0  0  0  0  0  0  0  0  0  0  0  0
  1 19  1  0  0  0  0
  1  4  1  0  0  0  0
  2  3  1  0  0  0  0
  2  1  1  0  0  0  0
  3  5  1  0  0  0  0
  5  7  1  0  0  0  0
  5  4  2  0  0  0  0
  6 33  1  0  0  0  0
  6  3  1  0  0  0  0
  7 12  2  0  0  0  0
  7  8  1  0  0  0  0
  8 13  1  0  0  0  0
  8  9  2  0  0  0  0
  9 34  1  0  0  0  0
 10  9  1  0  0  0  0
 10 35  1  0  0  0  0
 11 36  1  0  0  0  0
 11 10  2  0  0  0  0
 12 11  1  0  0  0  0
 13 15  1  0  0  0  0
 14 13  1  0  0  0  0
 14 39  1  0  0  0  0
 15 42  1  0  0  0  0
 15 43  1  0  0  0  0
 15 41  1  0  0  0  0
 16 12  1  0  0  0  0
 16 18  1  0  0  0  0
 17 47  1  0  0  0  0
 17 16  1  0  0  0  0
 18 50  1  0  0  0  0
 18 48  1  0  0  0  0
 19 20  2  0  0  0  0
 19 24  1  0  0  0  0
 20 21  1  0  0  0  0
 21 51  1  0  0  0  0
 21 22  2  0  0  0  0
 22 23  1  0  0  0  0
 22 52  1  0  0  0  0
 23 53  1  0  0  0  0
 24 28  1  0  0  0  0
 24 23  2  0  0  0  0
 25 20  1  0  0  0  0
 25 26  1  0  0  0  0
 26 56  1  0  0  0  0
 26 55  1  0  0  0  0
 27 59  1  0  0  0  0
 27 25  1  0  0  0  0
 28 29  1  0  0  0  0
 29 63  1  0  0  0  0
 29 62  1  0  0  0  0
 29 64  1  0  0  0  0
 30 66  1  0  0  0  0
 30 28  1  0  0  0  0
 30 65  1  0  0  0  0
 31  6  1  0  0  0  0
 32  6  1  0  0  0  0
 37 13  1  0  0  0  0
 38 14  1  0  0  0  0
 40 14  1  0  0  0  0
 44 16  1  0  0  0  0
 45 17  1  0  0  0  0
 46 17  1  0  0  0  0
 49 18  1  0  0  0  0
 54 25  1  0  0  0  0
 57 26  1  0  0  0  0
 58 27  1  0  0  0  0
 60 27  1  0  0  0  0
 61 28  1  0  0  0  0
 67 30  1  0  0  0  0
M  END
