12
 OpenBabel05122313113D

 31 32  0  0  0  0  0  0  0  0999 V2000
    1.3844    1.1444   -0.0018 N   0  0  0  0  0  0  0  0  0  0  0  0
   -2.1163    0.3787    0.0090 C   0  0  0  0  0  0  0  0  0  0  0  0
   -1.5311   -0.9352    0.0048 C   0  0  0  0  0  3  0  0  0  0  0  0
   -2.4452   -1.9931   -0.0027 C   0  0  0  0  0  0  0  0  0  0  0  0
   -3.8563   -1.7933   -0.0022 C   0  0  0  0  0  0  0  0  0  0  0  0
   -4.4043   -0.5167    0.0045 C   0  0  0  0  0  0  0  0  0  0  0  0
   -3.5367    0.6132    0.0091 C   0  0  0  0  0  0  0  0  0  0  0  0
   -3.9916    1.9645    0.0119 C   0  0  0  0  0  0  0  0  0  0  0  0
   -3.0992    3.0354    0.0117 C   0  0  0  0  0  0  0  0  0  0  0  0
   -1.6998    2.8146    0.0086 C   0  0  0  0  0  0  0  0  0  0  0  0
   -1.2142    1.5023    0.0085 C   0  0  0  0  0  0  0  0  0  0  0  0
    0.1297    0.9743    0.0075 C   0  0  0  0  0  3  0  0  0  0  0  0
    2.2398    2.3547   -0.0164 C   0  0  0  0  0  0  0  0  0  0  0  0
    1.9321    3.1851    1.2424 C   0  0  0  0  0  0  0  0  0  0  0  0
    1.9277    3.1544   -1.2939 C   0  0  0  0  0  0  0  0  0  0  0  0
    3.7101    1.9166   -0.0140 C   0  0  0  0  0  0  0  0  0  0  0  0
   -2.0775   -3.0355   -0.0120 H   0  0  0  0  0  0  0  0  0  0  0  0
   -4.5234   -2.6708   -0.0075 H   0  0  0  0  0  0  0  0  0  0  0  0
   -5.4951   -0.3657    0.0048 H   0  0  0  0  0  0  0  0  0  0  0  0
   -5.0769    2.1573    0.0133 H   0  0  0  0  0  0  0  0  0  0  0  0
   -3.4847    4.0664    0.0131 H   0  0  0  0  0  0  0  0  0  0  0  0
   -1.0098    3.6716    0.0069 H   0  0  0  0  0  0  0  0  0  0  0  0
    0.8656    3.4823    1.2747 H   0  0  0  0  0  0  0  0  0  0  0  0
    2.5504    4.1053    1.2618 H   0  0  0  0  0  0  0  0  0  0  0  0
    2.1504    2.6022    2.1594 H   0  0  0  0  0  0  0  0  0  0  0  0
    2.1414    2.5472   -2.1961 H   0  0  0  0  0  0  0  0  0  0  0  0
    2.5477    4.0725   -1.3396 H   0  0  0  0  0  0  0  0  0  0  0  0
    0.8615    3.4528   -1.3281 H   0  0  0  0  0  0  0  0  0  0  0  0
    3.9434    1.3065    0.8801 H   0  0  0  0  0  0  0  0  0  0  0  0
    4.3771    2.8012   -0.0126 H   0  0  0  0  0  0  0  0  0  0  0  0
    3.9457    1.3093   -0.9092 H   0  0  0  0  0  0  0  0  0  0  0  0
  1 12  2  0  0  0  0
  2  7  1  0  0  0  0
  3  2  1  0  0  0  0
  4  5  1  0  0  0  0
  4  3  2  0  0  0  0
  5  6  2  0  0  0  0
  6 19  1  0  0  0  0
  6  7  1  0  0  0  0
  7  8  2  0  0  0  0
  8 20  1  0  0  0  0
  9  8  1  0  0  0  0
  9 21  1  0  0  0  0
 10  9  2  0  0  0  0
 11 10  1  0  0  0  0
 11  2  2  0  0  0  0
 12 11  1  0  0  0  0
 13 16  1  0  0  0  0
 13  1  1  0  0  0  0
 13 14  1  0  0  0  0
 14 24  1  0  0  0  0
 14 23  1  0  0  0  0
 14 25  1  0  0  0  0
 15 13  1  0  0  0  0
 16 30  1  0  0  0  0
 16 29  1  0  0  0  0
 17  4  1  0  0  0  0
 18  5  1  0  0  0  0
 22 10  1  0  0  0  0
 26 15  1  0  0  0  0
 27 15  1  0  0  0  0
 28 15  1  0  0  0  0
 31 16  1  0  0  0  0
M  END
