2
 OpenBabel05122313113D

 13 13  0  0  0  0  0  0  0  0999 V2000
   -2.6594   -1.3129   -2.1139 C   0  0  0  0  0  0  0  0  0  0  0  0
   -1.6294   -0.8781   -1.5866 C   0  0  0  0  0  3  0  0  0  0  0  0
   -4.7482   -2.4726   -1.6379 N   0  0  0  0  0  0  0  0  0  0  0  0
   -4.3432   -3.1533   -0.5275 C   0  0  0  0  0  0  0  0  0  0  0  0
   -3.2836   -3.2005   -0.2546 H   0  0  0  0  0  0  0  0  0  0  0  0
   -3.8970   -1.8503   -2.6635 C   0  0  0  0  0  0  0  0  0  0  0  0
   -4.5243   -1.0609   -3.1288 H   0  0  0  0  0  0  0  0  0  0  0  0
   -3.6963   -2.6023   -3.4608 H   0  0  0  0  0  0  0  0  0  0  0  0
   -6.0841   -2.4879   -1.8094 N   0  0  0  0  0  0  0  0  0  0  0  0
   -6.5512   -3.2014   -0.7705 C   0  0  0  0  0  0  0  0  0  0  0  0
   -7.6325   -3.3607   -0.6654 H   0  0  0  0  0  0  0  0  0  0  0  0
   -5.5012   -3.6470    0.0725 C   0  0  0  0  0  0  0  0  0  0  0  0
   -5.5697   -4.2340    0.9943 H   0  0  0  0  0  0  0  0  0  0  0  0
  1  2  3  0  0  0  0
  3  4  1  0  0  0  0
  4  5  1  0  0  0  0
  4 12  2  0  0  0  0
  6  1  1  0  0  0  0
  6  3  1  0  0  0  0
  7  6  1  0  0  0  0
  8  6  1  0  0  0  0
  9  3  1  0  0  0  0
  9 10  2  0  0  0  0
 10 11  1  0  0  0  0
 10 12  1  0  0  0  0
 12 13  1  0  0  0  0
M  END
