8
 OpenBabel05122313113D

 47 49  0  0  1  0  0  0  0  0999 V2000
   -0.4639    1.3086   -0.4946 P   0  0  0  0  0  0  0  0  0  0  0  0
    0.1543    2.7725    3.3218 O   0  0  0  0  0  0  0  0  0  0  0  0
   -1.6983    2.6486    1.9791 O   0  0  0  0  0  0  0  0  0  0  0  0
   -0.9379    0.6578    2.9231 C   0  0  2  0  0  3  0  0  0  0  0  0
    0.0453   -0.3134    3.3830 C   0  0  0  0  0  0  0  0  0  0  0  0
   -0.3948   -1.6040    2.9534 C   0  0  0  0  0  0  0  0  0  0  0  0
   -1.6554   -1.4760    2.2335 C   0  0  2  0  0  3  0  0  0  0  0  0
   -1.9744   -0.0775    2.2088 C   0  0  0  0  0  3  0  0  0  0  0  0
    1.3082   -0.0002    4.1148 C   0  0  0  0  0  0  0  0  0  0  0  0
   -2.5607   -2.5991    1.8344 C   0  0  0  0  0  0  0  0  0  0  0  0
   -0.7430    2.1082    2.8297 C   0  0  0  0  0  0  0  0  0  0  0  0
   -1.1915    3.6236    1.0627 C   0  0  0  0  0  0  0  0  0  0  0  0
   -0.1136    3.0322    0.1504 C   0  0  0  0  0  0  0  0  0  0  0  0
   -2.0739    1.5273   -1.3779 C   0  0  0  0  0  0  0  0  0  0  0  0
   -3.1960    0.7563   -1.0233 C   0  0  0  0  0  0  0  0  0  0  0  0
   -4.4205    0.9305   -1.6883 C   0  0  0  0  0  0  0  0  0  0  0  0
   -4.5330    1.8808   -2.7140 C   0  0  0  0  0  0  0  0  0  0  0  0
   -3.4164    2.6538   -3.0766 C   0  0  0  0  0  0  0  0  0  0  0  0
   -2.1933    2.4775   -2.4148 C   0  0  0  0  0  0  0  0  0  0  0  0
    0.7221    1.1928   -1.9041 C   0  0  0  0  0  0  0  0  0  0  0  0
    1.9557    1.8768   -1.8996 C   0  0  0  0  0  0  0  0  0  0  0  0
    2.9033    1.6428   -2.9066 C   0  0  0  0  0  0  0  0  0  0  0  0
    2.6351    0.7211   -3.9292 C   0  0  0  0  0  0  0  0  0  0  0  0
    1.4070    0.0404   -3.9466 C   0  0  0  0  0  0  0  0  0  0  0  0
    0.4580    0.2730   -2.9413 C   0  0  0  0  0  0  0  0  0  0  0  0
    0.1359   -2.5449    3.1485 H   0  0  0  0  0  0  0  0  0  0  0  0
   -2.8928    0.3735    1.8182 H   0  0  0  0  0  0  0  0  0  0  0  0
    1.8071    0.8748    3.6580 H   0  0  0  0  0  0  0  0  0  0  0  0
    1.0805    0.2632    5.1685 H   0  0  0  0  0  0  0  0  0  0  0  0
    1.9979   -0.8653    4.1037 H   0  0  0  0  0  0  0  0  0  0  0  0
   -3.1663   -2.9274    2.7069 H   0  0  0  0  0  0  0  0  0  0  0  0
   -3.2612   -2.2915    1.0350 H   0  0  0  0  0  0  0  0  0  0  0  0
   -1.9959   -3.4772    1.4679 H   0  0  0  0  0  0  0  0  0  0  0  0
   -2.0729    3.9524    0.4786 H   0  0  0  0  0  0  0  0  0  0  0  0
   -0.7751    4.4944    1.6132 H   0  0  0  0  0  0  0  0  0  0  0  0
    0.8420    2.9257    0.7042 H   0  0  0  0  0  0  0  0  0  0  0  0
    0.0557    3.7105   -0.7102 H   0  0  0  0  0  0  0  0  0  0  0  0
   -3.0929    0.0093   -0.2235 H   0  0  0  0  0  0  0  0  0  0  0  0
   -5.2901    0.3194   -1.4021 H   0  0  0  0  0  0  0  0  0  0  0  0
   -5.4916    2.0189   -3.2369 H   0  0  0  0  0  0  0  0  0  0  0  0
   -3.4985    3.3959   -3.8854 H   0  0  0  0  0  0  0  0  0  0  0  0
   -1.3167    3.0716   -2.7176 H   0  0  0  0  0  0  0  0  0  0  0  0
    2.2004    2.5803   -1.0926 H   0  0  0  0  0  0  0  0  0  0  0  0
    3.8671    2.1724   -2.8762 H   0  0  0  0  0  0  0  0  0  0  0  0
    3.3847    0.5303   -4.7120 H   0  0  0  0  0  0  0  0  0  0  0  0
    1.1855   -0.6822   -4.7469 H   0  0  0  0  0  0  0  0  0  0  0  0
   -0.4989   -0.2696   -2.9640 H   0  0  0  0  0  0  0  0  0  0  0  0
  1 13  1  0  0  0  0
  3 11  1  0  0  0  0
  4 11  1  6  0  0  0
  4  5  1  0  0  0  0
  5  9  1  0  0  0  0
  6 26  1  0  0  0  0
  6  5  2  0  0  0  0
  7 10  1  1  0  0  0
  7  6  1  0  0  0  0
  8  7  1  0  0  0  0
  8  4  1  0  0  0  0
  9 29  1  0  0  0  0
 10 31  1  0  0  0  0
 11  2  2  0  0  0  0
 12 35  1  0  0  0  0
 12  3  1  0  0  0  0
 13 36  1  0  0  0  0
 13 12  1  0  0  0  0
 14 15  1  0  0  0  0
 14  1  1  0  0  0  0
 15 38  1  0  0  0  0
 16 39  1  0  0  0  0
 16 15  2  0  0  0  0
 17 16  1  0  0  0  0
 18 17  2  0  0  0  0
 18 19  1  0  0  0  0
 19 14  2  0  0  0  0
 20 21  1  0  0  0  0
 20  1  1  0  0  0  0
 21 43  1  0  0  0  0
 22 44  1  0  0  0  0
 22 21  2  0  0  0  0
 23 22  1  0  0  0  0
 24 23  2  0  0  0  0
 24 25  1  0  0  0  0
 25 20  2  0  0  0  0
 27  8  1  0  0  0  0
 28  9  1  0  0  0  0
 30  9  1  0  0  0  0
 32 10  1  0  0  0  0
 33 10  1  0  0  0  0
 34 12  1  0  0  0  0
 37 13  1  0  0  0  0
 40 17  1  0  0  0  0
 41 18  1  0  0  0  0
 42 19  1  0  0  0  0
 45 23  1  0  0  0  0
 46 24  1  0  0  0  0
 47 25  1  0  0  0  0
M  END
