1
 OpenBabel05122313113D

 14 14  0  0  0  0  0  0  0  0999 V2000
    0.9704   -0.9328    0.0004 C   0  0  0  0  0  3  0  0  0  0  0  0
    1.6904   -0.9425    1.2139 C   0  0  0  0  0  0  0  0  0  0  0  0
    1.1550   -0.9989    2.1743 H   0  0  0  0  0  0  0  0  0  0  0  0
    3.0879   -0.8265    1.2168 C   0  0  0  0  0  0  0  0  0  0  0  0
    3.6416   -0.7932    2.1672 H   0  0  0  0  0  0  0  0  0  0  0  0
    3.7887   -0.7300    0.0001 C   0  0  0  0  0  0  0  0  0  0  0  0
    3.0877   -0.8271   -1.2165 C   0  0  0  0  0  0  0  0  0  0  0  0
    3.6413   -0.7941   -2.1669 H   0  0  0  0  0  0  0  0  0  0  0  0
    1.6902   -0.9431   -1.2133 C   0  0  0  0  0  0  0  0  0  0  0  0
    1.1546   -1.0001   -2.1736 H   0  0  0  0  0  0  0  0  0  0  0  0
    5.2558   -0.4076   -0.0001 C   0  0  0  0  0  0  0  0  0  0  0  0
    5.4585    0.9471   -0.0000 F   0  0  0  0  0  0  0  0  0  0  0  0
    5.8951   -0.8893    1.0934 F   0  0  0  0  0  0  0  0  0  0  0  0
    5.8948   -0.8893   -1.0937 F   0  0  0  0  0  0  0  0  0  0  0  0
  1  2  1  0  0  0  0
  2  4  2  0  0  0  0
  2  3  1  0  0  0  0
  4  5  1  0  0  0  0
  6  4  1  0  0  0  0
  7  9  1  0  0  0  0
  7  6  2  0  0  0  0
  8  7  1  0  0  0  0
  9  1  2  0  0  0  0
 10  9  1  0  0  0  0
 11 12  1  0  0  0  0
 11  6  1  0  0  0  0
 11 13  1  0  0  0  0
 14 11  1  0  0  0  0
M  END
