1
 OpenBabel05122313113D

 38 39  0  0  0  0  0  0  0  0999 V2000
   -1.1187   -0.3471   -0.5968 C   0  0  0  0  0  3  0  0  0  0  0  0
   -1.8676   -1.6154   -0.8477 C   0  0  0  0  0  0  0  0  0  0  0  0
   -3.2678   -1.6943   -0.6954 C   0  0  0  0  0  0  0  0  0  0  0  0
   -3.8299   -0.8010   -0.3906 H   0  0  0  0  0  0  0  0  0  0  0  0
   -3.9457   -2.8926   -0.9566 C   0  0  0  0  0  0  0  0  0  0  0  0
   -5.0400   -2.9321   -0.8473 H   0  0  0  0  0  0  0  0  0  0  0  0
   -3.2345   -4.0397   -1.3434 C   0  0  0  0  0  0  0  0  0  0  0  0
   -3.7673   -4.9853   -1.5261 H   0  0  0  0  0  0  0  0  0  0  0  0
   -1.8398   -3.9742   -1.4967 C   0  0  0  0  0  0  0  0  0  0  0  0
   -1.2749   -4.8684   -1.8017 H   0  0  0  0  0  0  0  0  0  0  0  0
   -1.1653   -2.7678   -1.2707 C   0  0  0  0  0  0  0  0  0  0  0  0
   -0.0754   -2.7041   -1.4099 H   0  0  0  0  0  0  0  0  0  0  0  0
   -0.2323   -0.0782   -1.5014 N   0  0  0  0  0  0  0  0  0  0  0  0
    0.7135    0.7513   -1.8798 C   0  0  0  0  0  0  0  0  0  0  0  0
    2.0937    0.5413   -1.4406 C   0  0  0  0  0  0  0  0  0  0  0  0
    2.8499    1.2589   -1.7824 H   0  0  0  0  0  0  0  0  0  0  0  0
    2.4434   -0.4485   -0.5730 C   0  0  0  0  0  3  0  0  0  0  0  0
    1.6492   -1.1300   -0.2290 H   0  0  0  0  0  0  0  0  0  0  0  0
    3.7673   -0.6980   -0.0133 C   0  0  0  0  0  0  0  0  0  0  0  0
    3.8864   -1.6268    1.0504 C   0  0  0  0  0  0  0  0  0  0  0  0
    2.9786   -2.1184    1.4307 H   0  0  0  0  0  0  0  0  0  0  0  0
    5.1296   -1.8898    1.6381 C   0  0  0  0  0  0  0  0  0  0  0  0
    5.2003   -2.6071    2.4694 H   0  0  0  0  0  0  0  0  0  0  0  0
    6.2812   -1.2384    1.1691 C   0  0  0  0  0  0  0  0  0  0  0  0
    7.2600   -1.4470    1.6268 H   0  0  0  0  0  0  0  0  0  0  0  0
    6.1810   -0.3181    0.1093 C   0  0  0  0  0  0  0  0  0  0  0  0
    7.0827    0.1901   -0.2646 H   0  0  0  0  0  0  0  0  0  0  0  0
    4.9403   -0.0494   -0.4748 C   0  0  0  0  0  0  0  0  0  0  0  0
    4.8802    0.6632   -1.3111 H   0  0  0  0  0  0  0  0  0  0  0  0
    0.4126    1.7825   -2.7267 N   0  0  0  0  0  0  0  0  0  0  0  0
   -0.9792    2.0891   -3.0265 C   0  0  0  0  0  0  0  0  0  0  0  0
   -1.0515    2.5016   -4.0515 H   0  0  0  0  0  0  0  0  0  0  0  0
   -1.4084    2.8256   -2.3136 H   0  0  0  0  0  0  0  0  0  0  0  0
   -1.5833    1.1653   -2.9669 H   0  0  0  0  0  0  0  0  0  0  0  0
    1.4159    2.7565   -3.1306 C   0  0  0  0  0  0  0  0  0  0  0  0
    0.9817    3.4030   -3.9145 H   0  0  0  0  0  0  0  0  0  0  0  0
    2.3124    2.2680   -3.5600 H   0  0  0  0  0  0  0  0  0  0  0  0
    1.7245    3.4020   -2.2790 H   0  0  0  0  0  0  0  0  0  0  0  0
  2  3  1  0  0  0  0
  2  1  1  0  0  0  0
  3  4  1  0  0  0  0
  5  6  1  0  0  0  0
  5  3  2  0  0  0  0
  7  5  1  0  0  0  0
  8  7  1  0  0  0  0
  9  7  2  0  0  0  0
  9 11  1  0  0  0  0
 10  9  1  0  0  0  0
 11  2  2  0  0  0  0
 12 11  1  0  0  0  0
 13  1  2  0  0  0  0
 14 13  1  0  0  0  0
 14 15  2  0  0  0  0
 15 17  1  0  0  0  0
 16 15  1  0  0  0  0
 17 18  1  0  0  0  0
 17 19  1  0  0  0  0
 19 20  1  0  0  0  0
 20 21  1  0  0  0  0
 20 22  2  0  0  0  0
 22 23  1  0  0  0  0
 24 25  1  0  0  0  0
 24 22  1  0  0  0  0
 26 24  2  0  0  0  0
 27 26  1  0  0  0  0
 28 19  2  0  0  0  0
 28 26  1  0  0  0  0
 29 28  1  0  0  0  0
 30 14  1  0  0  0  0
 31 34  1  0  0  0  0
 31 30  1  0  0  0  0
 31 33  1  0  0  0  0
 32 31  1  0  0  0  0
 35 30  1  0  0  0  0
 35 38  1  0  0  0  0
 36 35  1  0  0  0  0
 37 35  1  0  0  0  0
M  END
