2
 OpenBabel05122313113D

 16 15  0  0  0  0  0  0  0  0999 V2000
   -1.1580    2.9208   -1.4022 Si  0  0  0  0  0  0  0  0  0  0  0  0
   -0.5526    1.2227   -1.9011 C   0  0  0  0  0  3  0  0  0  0  0  0
   -2.1157    2.8674    0.2578 C   0  0  0  0  0  0  0  0  0  0  0  0
   -2.3487    3.7124   -2.6640 C   0  0  0  0  0  0  0  0  0  0  0  0
    0.3135    4.0861   -1.1222 C   0  0  0  0  0  0  0  0  0  0  0  0
   -2.4131    3.8905    0.5702 H   0  0  0  0  0  0  0  0  0  0  0  0
   -1.4770    2.4554    1.0697 H   0  0  0  0  0  0  0  0  0  0  0  0
   -3.0380    2.2535    0.1959 H   0  0  0  0  0  0  0  0  0  0  0  0
   -2.7022    4.7114   -2.3317 H   0  0  0  0  0  0  0  0  0  0  0  0
   -3.2424    3.0716   -2.8201 H   0  0  0  0  0  0  0  0  0  0  0  0
   -1.8524    3.8350   -3.6492 H   0  0  0  0  0  0  0  0  0  0  0  0
   -0.0131    5.0980   -0.8049 H   0  0  0  0  0  0  0  0  0  0  0  0
    0.9573    3.6586   -0.3269 H   0  0  0  0  0  0  0  0  0  0  0  0
    0.9248    4.1952   -2.0420 H   0  0  0  0  0  0  0  0  0  0  0  0
   -1.3079    0.7228   -2.5504 H   0  0  0  0  0  0  0  0  0  0  0  0
    0.3506    1.3537   -2.5404 H   0  0  0  0  0  0  0  0  0  0  0  0
  1  5  1  0  0  0  0
  1  3  1  0  0  0  0
  2  1  1  0  0  0  0
  3  6  1  0  0  0  0
  3  7  1  0  0  0  0
  4  9  1  0  0  0  0
  4  1  1  0  0  0  0
  5 12  1  0  0  0  0
  5 13  1  0  0  0  0
  8  3  1  0  0  0  0
 10  4  1  0  0  0  0
 11  4  1  0  0  0  0
 14  5  1  0  0  0  0
 15  2  1  0  0  0  0
 16  2  1  0  0  0  0
M  END
