6
 OpenBabel05122313113D

 10  9  0  0  0  0  0  0  0  0999 V2000
   -0.7761   -2.9329    0.9215 C   0  0  0  0  0  3  0  0  0  0  0  0
   -0.3000   -2.6111    1.8616 H   0  0  0  0  0  0  0  0  0  0  0  0
   -0.2139   -3.6982    0.3617 H   0  0  0  0  0  0  0  0  0  0  0  0
   -2.1980   -2.9548    0.8530 C   0  0  0  0  0  3  0  0  0  0  0  0
   -2.7491   -3.7138    0.2717 H   0  0  0  0  0  0  0  0  0  0  0  0
   -2.9029   -1.8229    1.3831 C   0  0  0  0  0  3  0  0  0  0  0  0
   -3.9883   -1.7357    1.2083 H   0  0  0  0  0  0  0  0  0  0  0  0
   -2.1501   -0.7355    1.9162 C   0  0  0  0  0  3  0  0  0  0  0  0
   -2.7012    0.1949    2.1298 H   0  0  0  0  0  0  0  0  0  0  0  0
   -1.2844   -0.9129    2.5777 H   0  0  0  0  0  0  0  0  0  0  0  0
  1  2  1  0  0  0  0
  3  1  1  0  0  0  0
  4  1  1  0  0  0  0
  4  6  1  0  0  0  0
  5  4  1  0  0  0  0
  6  8  1  0  0  0  0
  7  6  1  0  0  0  0
  8  9  1  0  0  0  0
  8 10  1  0  0  0  0
M  END
