4
 OpenBabel05122313113D

 56 58  0  0  0  0  0  0  0  0999 V2000
   -2.3656   -2.0540    1.5916 N   0  0  0  0  0  0  0  0  0  0  0  0
   -0.8358   -0.6413    2.1847 N   0  0  0  0  0  0  0  0  0  0  0  0
    1.0859   -0.6793    0.3211 N   0  0  0  0  0  0  0  0  0  0  0  0
   -1.9317   -0.7755    1.3735 C   0  0  0  0  0  2  0  0  0  0  0  0
   -1.5401   -2.7125    2.4944 C   0  0  0  0  0  0  0  0  0  0  0  0
   -1.7173   -3.7468    2.8029 H   0  0  0  0  0  0  0  0  0  0  0  0
   -0.5652   -1.8217    2.8584 C   0  0  0  0  0  0  0  0  0  0  0  0
    0.2868   -1.9281    3.5359 H   0  0  0  0  0  0  0  0  0  0  0  0
    0.0422    0.5081    2.1349 C   0  0  0  0  0  0  0  0  0  0  0  0
    0.5173    0.6476    3.1271 H   0  0  0  0  0  0  0  0  0  0  0  0
   -0.5769    1.4075    1.9357 H   0  0  0  0  0  0  0  0  0  0  0  0
    1.0932    0.3897    1.0313 C   0  0  0  0  0  0  0  0  0  0  0  0
   -3.5055   -2.6590    0.9209 C   0  0  0  0  0  0  0  0  0  0  0  0
   -4.0316   -1.8652    0.3591 H   0  0  0  0  0  0  0  0  0  0  0  0
   -4.1938   -3.1083    1.6627 H   0  0  0  0  0  0  0  0  0  0  0  0
   -3.1651   -3.4377    0.2097 H   0  0  0  0  0  0  0  0  0  0  0  0
    1.9938    1.5660    0.8631 C   0  0  0  0  0  0  0  0  0  0  0  0
    2.2839    2.0656   -0.4261 C   0  0  0  0  0  0  0  0  0  0  0  0
    1.8227    1.5984   -1.3065 H   0  0  0  0  0  0  0  0  0  0  0  0
    3.1455    3.1583   -0.5829 C   0  0  0  0  0  0  0  0  0  0  0  0
    3.3561    3.5419   -1.5923 H   0  0  0  0  0  0  0  0  0  0  0  0
    3.7377    3.7618    0.5388 C   0  0  0  0  0  0  0  0  0  0  0  0
    4.4205    4.6152    0.4106 H   0  0  0  0  0  0  0  0  0  0  0  0
    3.4515    3.2769    1.8243 C   0  0  0  0  0  0  0  0  0  0  0  0
    3.9119    3.7447    2.7074 H   0  0  0  0  0  0  0  0  0  0  0  0
    2.5774    2.1929    1.9862 C   0  0  0  0  0  0  0  0  0  0  0  0
    2.3748    1.8142    2.9995 H   0  0  0  0  0  0  0  0  0  0  0  0
    1.9676   -0.9492   -0.7421 C   0  0  0  0  0  0  0  0  0  0  0  0
    1.4013   -1.0119   -2.0506 C   0  0  0  0  0  0  0  0  0  0  0  0
    2.2407   -1.3380   -3.1262 C   0  0  0  0  0  0  0  0  0  0  0  0
    1.8210   -1.3671   -4.1425 H   0  0  0  0  0  0  0  0  0  0  0  0
    3.5995   -1.6271   -2.9264 C   0  0  0  0  0  0  0  0  0  0  0  0
    4.2418   -1.8864   -3.7814 H   0  0  0  0  0  0  0  0  0  0  0  0
    4.1318   -1.5845   -1.6342 C   0  0  0  0  0  0  0  0  0  0  0  0
    5.1971   -1.8170   -1.4794 H   0  0  0  0  0  0  0  0  0  0  0  0
    3.3412   -1.2388   -0.5202 C   0  0  0  0  0  0  0  0  0  0  0  0
   -0.0853   -0.7419   -2.2360 C   0  0  0  0  0  0  0  0  0  0  0  0
   -0.3893   -0.0018   -1.4631 H   0  0  0  0  0  0  0  0  0  0  0  0
   -0.4614   -0.1393   -3.5934 C   0  0  0  0  0  0  0  0  0  0  0  0
    0.1767    0.7332   -3.8413 H   0  0  0  0  0  0  0  0  0  0  0  0
   -1.5117    0.2138   -3.5643 H   0  0  0  0  0  0  0  0  0  0  0  0
   -0.3690   -0.8748   -4.4201 H   0  0  0  0  0  0  0  0  0  0  0  0
   -0.8925   -2.0218   -1.9470 C   0  0  0  0  0  0  0  0  0  0  0  0
   -0.6581   -2.4122   -0.9366 H   0  0  0  0  0  0  0  0  0  0  0  0
   -0.6549   -2.8110   -2.6903 H   0  0  0  0  0  0  0  0  0  0  0  0
   -1.9806   -1.8083   -1.9947 H   0  0  0  0  0  0  0  0  0  0  0  0
    3.9653   -1.2245    0.8706 C   0  0  0  0  0  0  0  0  0  0  0  0
    3.1978   -0.8666    1.5854 H   0  0  0  0  0  0  0  0  0  0  0  0
    5.1536   -0.2524    0.9578 C   0  0  0  0  0  0  0  0  0  0  0  0
    4.8593    0.7709    0.6523 H   0  0  0  0  0  0  0  0  0  0  0  0
    5.9889   -0.5747    0.3024 H   0  0  0  0  0  0  0  0  0  0  0  0
    5.5459   -0.2032    1.9946 H   0  0  0  0  0  0  0  0  0  0  0  0
    4.3605   -2.6450    1.3122 C   0  0  0  0  0  0  0  0  0  0  0  0
    3.4869   -3.3272    1.2919 H   0  0  0  0  0  0  0  0  0  0  0  0
    4.7748   -2.6402    2.3420 H   0  0  0  0  0  0  0  0  0  0  0  0
    5.1339   -3.0732    0.6415 H   0  0  0  0  0  0  0  0  0  0  0  0
  1  5  1  0  0  0  0
  2  7  1  0  0  0  0
  3 12  2  0  0  0  0
  4  1  1  0  0  0  0
  4  2  1  0  0  0  0
  5  6  1  0  0  0  0
  5  7  2  0  0  0  0
  7  8  1  0  0  0  0
  9  2  1  0  0  0  0
  9 10  1  0  0  0  0
 11  9  1  0  0  0  0
 12  9  1  0  0  0  0
 13  1  1  0  0  0  0
 13 15  1  0  0  0  0
 14 13  1  0  0  0  0
 16 13  1  0  0  0  0
 17 12  1  0  0  0  0
 17 26  1  0  0  0  0
 18 17  2  0  0  0  0
 19 18  1  0  0  0  0
 20 18  1  0  0  0  0
 20 22  2  0  0  0  0
 21 20  1  0  0  0  0
 22 24  1  0  0  0  0
 23 22  1  0  0  0  0
 24 26  2  0  0  0  0
 24 25  1  0  0  0  0
 26 27  1  0  0  0  0
 28 36  1  0  0  0  0
 28  3  1  0  0  0  0
 29 28  2  0  0  0  0
 30 32  2  0  0  0  0
 30 29  1  0  0  0  0
 31 30  1  0  0  0  0
 32 34  1  0  0  0  0
 33 32  1  0  0  0  0
 34 35  1  0  0  0  0
 34 36  2  0  0  0  0
 36 47  1  0  0  0  0
 37 29  1  0  0  0  0
 37 43  1  0  0  0  0
 37 38  1  0  0  0  0
 39 41  1  0  0  0  0
 39 37  1  0  0  0  0
 40 39  1  0  0  0  0
 42 39  1  0  0  0  0
 43 44  1  0  0  0  0
 45 43  1  0  0  0  0
 46 43  1  0  0  0  0
 47 49  1  0  0  0  0
 47 53  1  0  0  0  0
 47 48  1  0  0  0  0
 49 52  1  0  0  0  0
 50 49  1  0  0  0  0
 51 49  1  0  0  0  0
 53 55  1  0  0  0  0
 54 53  1  0  0  0  0
 56 53  1  0  0  0  0
M  END
