6
 OpenBabel05122313113D

 66 69  0  0  1  0  0  0  0  0999 V2000
   -0.1932    1.5623    3.2252 Br  0  0  0  0  0  0  0  0  0  0  0  0
   -7.7875    0.2775   -1.7409 Br  0  0  0  0  0  0  0  0  0  0  0  0
    1.9007    1.8704   -1.1477 N   0  0  0  0  0  0  0  0  0  0  0  0
    0.6049    1.3572    0.5154 N   0  0  0  0  0  0  0  0  0  0  0  0
   -2.1793    0.9804    0.5537 N   0  0  0  0  0  0  0  0  0  0  0  0
    1.6115    0.8817   -0.2732 C   0  0  0  0  0  2  0  0  0  0  0  0
    1.0841    2.9730   -0.9119 C   0  0  0  0  0  0  0  0  0  0  0  0
    1.1794    3.8941   -1.4936 H   0  0  0  0  0  0  0  0  0  0  0  0
    0.2542    2.6450    0.1264 C   0  0  0  0  0  0  0  0  0  0  0  0
   -0.5423    3.1960    0.6298 H   0  0  0  0  0  0  0  0  0  0  0  0
    2.9664    1.8314   -2.1582 C   0  0  0  0  0  0  0  0  0  0  0  0
    2.5198    2.1125   -3.1317 H   0  0  0  0  0  0  0  0  0  0  0  0
    3.2803    0.7723   -2.2407 H   0  0  0  0  0  0  0  0  0  0  0  0
    4.1228    2.7407   -1.8040 C   0  0  0  0  0  0  0  0  0  0  0  0
    4.8315    2.5512   -0.5999 C   0  0  0  0  0  0  0  0  0  0  0  0
    4.5427    1.7435    0.0932 H   0  0  0  0  0  0  0  0  0  0  0  0
    5.9044    3.3927   -0.2772 C   0  0  0  0  0  0  0  0  0  0  0  0
    6.4525    3.2357    0.6639 H   0  0  0  0  0  0  0  0  0  0  0  0
    6.2824    4.4265   -1.1509 C   0  0  0  0  0  0  0  0  0  0  0  0
    7.1272    5.0837   -0.8949 H   0  0  0  0  0  0  0  0  0  0  0  0
    5.5814    4.6182   -2.3505 C   0  0  0  0  0  0  0  0  0  0  0  0
    5.8724    5.4255   -3.0393 H   0  0  0  0  0  0  0  0  0  0  0  0
    4.5027    3.7793   -2.6734 C   0  0  0  0  0  0  0  0  0  0  0  0
    3.9527    3.9294   -3.6165 H   0  0  0  0  0  0  0  0  0  0  0  0
   -0.0504    0.5575    1.5316 C   0  0  2  0  0  0  0  0  0  0  0  0
    0.6278   -0.2748    1.7799 H   0  0  0  0  0  0  0  0  0  0  0  0
   -1.4426    0.0856    1.1125 C   0  0  0  0  0  0  0  0  0  0  0  0
   -1.7865   -1.3312    1.4130 C   0  0  0  0  0  0  0  0  0  0  0  0
   -0.8112   -2.3481    1.2951 C   0  0  0  0  0  0  0  0  0  0  0  0
    0.2174   -2.1138    0.9834 H   0  0  0  0  0  0  0  0  0  0  0  0
   -1.1417   -3.6905    1.5184 C   0  0  0  0  0  0  0  0  0  0  0  0
   -0.3651   -4.4598    1.3960 H   0  0  0  0  0  0  0  0  0  0  0  0
   -2.4495   -4.0374    1.8888 C   0  0  0  0  0  0  0  0  0  0  0  0
   -2.7113   -5.0906    2.0711 H   0  0  0  0  0  0  0  0  0  0  0  0
   -3.4254   -3.0349    2.0259 C   0  0  0  0  0  0  0  0  0  0  0  0
   -4.4513   -3.2995    2.3221 H   0  0  0  0  0  0  0  0  0  0  0  0
   -3.1034   -1.6953    1.7806 C   0  0  0  0  0  0  0  0  0  0  0  0
   -3.8771   -0.9234    1.8802 H   0  0  0  0  0  0  0  0  0  0  0  0
   -3.4517    0.7697    0.0095 C   0  0  0  0  0  0  0  0  0  0  0  0
   -4.5198    1.5484    0.5452 C   0  0  0  0  0  0  0  0  0  0  0  0
   -4.2437    2.4998    1.7022 C   0  0  0  0  0  0  0  0  0  0  0  0
   -3.2026    2.8623    1.5474 H   0  0  0  0  0  0  0  0  0  0  0  0
   -5.1790    3.7141    1.7316 C   0  0  0  0  0  0  0  0  0  0  0  0
   -5.2114    4.2317    0.7521 H   0  0  0  0  0  0  0  0  0  0  0  0
   -4.8384    4.4418    2.4954 H   0  0  0  0  0  0  0  0  0  0  0  0
   -6.2177    3.4298    2.0001 H   0  0  0  0  0  0  0  0  0  0  0  0
   -4.2579    1.7648    3.0561 C   0  0  0  0  0  0  0  0  0  0  0  0
   -5.2541    1.3149    3.2486 H   0  0  0  0  0  0  0  0  0  0  0  0
   -4.0337    2.4673    3.8849 H   0  0  0  0  0  0  0  0  0  0  0  0
   -3.5006    0.9581    3.0984 H   0  0  0  0  0  0  0  0  0  0  0  0
   -5.8099    1.3845    0.0177 C   0  0  0  0  0  0  0  0  0  0  0  0
   -6.6534    1.9550    0.4284 H   0  0  0  0  0  0  0  0  0  0  0  0
   -6.0252    0.4963   -1.0446 C   0  0  0  0  0  0  0  0  0  0  0  0
   -4.9645   -0.2157   -1.6146 C   0  0  0  0  0  0  0  0  0  0  0  0
   -5.1527   -0.8740   -2.4747 H   0  0  0  0  0  0  0  0  0  0  0  0
   -3.6594   -0.0948   -1.1044 C   0  0  0  0  0  0  0  0  0  0  0  0
   -2.5165   -0.8079   -1.8166 C   0  0  0  0  0  0  0  0  0  0  0  0
   -1.5894   -0.6618   -1.2303 H   0  0  0  0  0  0  0  0  0  0  0  0
   -2.2661   -0.1688   -3.1944 C   0  0  0  0  0  0  0  0  0  0  0  0
   -3.1395   -0.2998   -3.8664 H   0  0  0  0  0  0  0  0  0  0  0  0
   -1.3837   -0.6338   -3.6786 H   0  0  0  0  0  0  0  0  0  0  0  0
   -2.0717    0.9188   -3.1009 H   0  0  0  0  0  0  0  0  0  0  0  0
   -2.7369   -2.3242   -1.9275 C   0  0  0  0  0  0  0  0  0  0  0  0
   -3.5989   -2.5669   -2.5831 H   0  0  0  0  0  0  0  0  0  0  0  0
   -2.9238   -2.7793   -0.9352 H   0  0  0  0  0  0  0  0  0  0  0  0
   -1.8369   -2.8059   -2.3596 H   0  0  0  0  0  0  0  0  0  0  0  0
  2 53  1  0  0  0  0
  3  7  1  0  0  0  0
  3  6  1  0  0  0  0
  4 25  1  0  0  0  0
  5 27  2  0  0  0  0
  6  4  1  0  0  0  0
  7  9  2  0  0  0  0
  8  7  1  0  0  0  0
  9  4  1  0  0  0  0
  9 10  1  0  0  0  0
 11 14  1  0  0  0  0
 11  3  1  0  0  0  0
 12 11  1  0  0  0  0
 13 11  1  0  0  0  0
 14 15  1  0  0  0  0
 15 17  2  0  0  0  0
 15 16  1  0  0  0  0
 17 18  1  0  0  0  0
 19 20  1  0  0  0  0
 19 17  1  0  0  0  0
 21 19  2  0  0  0  0
 22 21  1  0  0  0  0
 23 21  1  0  0  0  0
 23 14  2  0  0  0  0
 24 23  1  0  0  0  0
 25 26  1  1  0  0  0
 25  1  1  0  0  0  0
 27 28  1  0  0  0  0
 27 25  1  0  0  0  0
 28 37  1  0  0  0  0
 29 28  2  0  0  0  0
 29 31  1  0  0  0  0
 30 29  1  0  0  0  0
 31 33  2  0  0  0  0
 32 31  1  0  0  0  0
 33 35  1  0  0  0  0
 33 34  1  0  0  0  0
 35 36  1  0  0  0  0
 37 38  1  0  0  0  0
 37 35  2  0  0  0  0
 39 40  1  0  0  0  0
 39  5  1  0  0  0  0
 40 41  1  0  0  0  0
 41 43  1  0  0  0  0
 41 47  1  0  0  0  0
 42 41  1  0  0  0  0
 43 46  1  0  0  0  0
 43 45  1  0  0  0  0
 44 43  1  0  0  0  0
 47 50  1  0  0  0  0
 47 48  1  0  0  0  0
 47 49  1  0  0  0  0
 51 52  1  0  0  0  0
 51 40  2  0  0  0  0
 53 51  1  0  0  0  0
 54 56  1  0  0  0  0
 54 53  2  0  0  0  0
 55 54  1  0  0  0  0
 56 39  2  0  0  0  0
 57 58  1  0  0  0  0
 57 56  1  0  0  0  0
 59 62  1  0  0  0  0
 59 57  1  0  0  0  0
 60 59  1  0  0  0  0
 61 59  1  0  0  0  0
 63 57  1  0  0  0  0
 63 65  1  0  0  0  0
 64 63  1  0  0  0  0
 66 63  1  0  0  0  0
M  END
