3
 OpenBabel05122313113D

 32 33  0  0  1  0  0  0  0  0999 V2000
    0.2706    0.1368    0.6333 C   0  0  0  0  0  0  0  0  0  0  0  0
    1.2752    1.1804    0.7399 C   0  0  1  0  0  3  0  0  0  0  0  0
    2.4238    0.9783    1.5598 C   0  0  0  0  0  3  0  0  0  0  0  0
    2.6159   -0.2286    2.2820 C   0  0  0  0  0  0  0  0  0  0  0  0
    1.6596   -1.2675    2.1345 C   0  0  0  0  0  0  0  0  0  0  0  0
    0.4918   -1.0891    1.3475 C   0  0  0  0  0  3  0  0  0  0  0  0
   -0.9006    0.3495   -0.1997 C   0  0  0  0  0  0  0  0  0  0  0  0
   -2.9309   -0.1889   -1.4322 C   0  0  0  0  0  0  0  0  0  0  0  0
   -4.2122   -0.1709   -0.6388 C   0  0  0  0  0  0  0  0  0  0  0  0
   -4.8091    1.0532   -0.2808 C   0  0  0  0  0  0  0  0  0  0  0  0
   -5.9845    1.0742    0.4847 C   0  0  0  0  0  0  0  0  0  0  0  0
   -6.5668   -0.1307    0.9075 C   0  0  0  0  0  0  0  0  0  0  0  0
   -5.9724   -1.3549    0.5597 C   0  0  0  0  0  0  0  0  0  0  0  0
   -4.8026   -1.3779   -0.2122 C   0  0  0  0  0  0  0  0  0  0  0  0
    1.1409    2.4871   -0.0092 C   0  0  0  0  0  0  0  0  0  0  0  0
   -1.7372   -1.8142   -0.2445 O   0  0  0  0  0  1  0  0  0  0  0  0
   -1.7666   -0.5968   -0.5631 N   0  0  0  0  0  0  0  0  0  0  0  0
    0.9320    2.3162   -1.3382 F   0  0  0  0  0  0  0  0  0  0  0  0
    0.0769    3.2027    0.4573 F   0  0  0  0  0  0  0  0  0  0  0  0
    2.2364    3.2612    0.1305 F   0  0  0  0  0  0  0  0  0  0  0  0
    3.1846    1.7683    1.5997 H   0  0  0  0  0  0  0  0  0  0  0  0
    3.5281   -0.3800    2.8731 H   0  0  0  0  0  0  0  0  0  0  0  0
    1.8281   -2.2377    2.6230 H   0  0  0  0  0  0  0  0  0  0  0  0
   -0.2329   -1.8979    1.2046 H   0  0  0  0  0  0  0  0  0  0  0  0
   -1.1084    1.3423   -0.6061 H   0  0  0  0  0  0  0  0  0  0  0  0
   -2.7127    0.7993   -1.8754 H   0  0  0  0  0  0  0  0  0  0  0  0
   -2.9484   -0.9526   -2.2329 H   0  0  0  0  0  0  0  0  0  0  0  0
   -4.3508    1.9998   -0.6094 H   0  0  0  0  0  0  0  0  0  0  0  0
   -6.4465    2.0363    0.7527 H   0  0  0  0  0  0  0  0  0  0  0  0
   -7.4890   -0.1162    1.5081 H   0  0  0  0  0  0  0  0  0  0  0  0
   -6.4270   -2.3014    0.8896 H   0  0  0  0  0  0  0  0  0  0  0  0
   -4.3257   -2.3321   -0.4787 H   0  0  0  0  0  0  0  0  0  0  0  0
  1  2  1  0  0  0  0
  1  6  1  0  0  0  0
  2 15  1  6  0  0  0
  2  3  1  0  0  0  0
  3 21  1  0  0  0  0
  3  4  1  0  0  0  0
  4 22  1  0  0  0  0
  5  4  2  0  0  0  0
  5 23  1  0  0  0  0
  6  5  1  0  0  0  0
  7  1  2  0  0  0  0
  8  9  1  0  0  0  0
  8 17  1  0  0  0  0
  9 10  2  0  0  0  0
  9 14  1  0  0  0  0
 10 11  1  0  0  0  0
 11 29  1  0  0  0  0
 11 12  2  0  0  0  0
 12 30  1  0  0  0  0
 13 31  1  0  0  0  0
 13 12  1  0  0  0  0
 14 13  2  0  0  0  0
 15 20  1  0  0  0  0
 15 19  1  0  0  0  0
 17 16  1  0  0  0  0
 17  7  1  0  0  0  0
 18 15  1  0  0  0  0
 24  6  1  0  0  0  0
 25  7  1  0  0  0  0
 26  8  1  0  0  0  0
 27  8  1  0  0  0  0
 28 10  1  0  0  0  0
 32 14  1  0  0  0  0
M  END
