5
 OpenBabel05122313113D

  7  6  0  0  0  0  0  0  0  0999 V2000
    1.6926   -1.9163   -0.6211 F   0  0  0  0  0  0  0  0  0  0  0  0
    3.0640    0.9339    0.9631 F   0  0  0  0  0  0  0  0  0  0  0  0
    2.6706    0.7503   -1.1803 F   0  0  0  0  0  0  0  0  0  0  0  0
    3.9994   -0.6627   -0.1952 F   0  0  0  0  0  0  0  0  0  0  0  0
    1.6873   -0.8781    0.3163 C   0  0  0  0  0  3  0  0  0  0  0  0
    1.9028   -1.3263    1.3084 H   0  0  0  0  0  0  0  0  0  0  0  0
    2.8559    0.0398   -0.0322 C   0  0  0  0  0  0  0  0  0  0  0  0
  1  5  1  0  0  0  0
  3  7  1  0  0  0  0
  4  7  1  0  0  0  0
  5  6  1  0  0  0  0
  7  5  1  0  0  0  0
  7  2  1  0  0  0  0
M  END
