3
 OpenBabel05122313113D

 28 30  0  0  0  0  0  0  0  0999 V2000
    1.8406    0.3918   -0.0338 N   0  0  0  0  0  0  0  0  0  0  0  0
    1.6028   -1.7896   -0.1061 N   0  0  0  0  0  0  0  0  0  0  0  0
    0.8978   -0.6186    0.0119 C   0  0  0  0  0  2  0  0  0  0  0  0
    3.1300   -0.1378   -0.1741 C   0  0  0  0  0  0  0  0  0  0  0  0
    4.3989    0.4523   -0.2325 C   0  0  0  0  0  0  0  0  0  0  0  0
    4.5238    1.5421   -0.1753 H   0  0  0  0  0  0  0  0  0  0  0  0
    5.5011   -0.4099   -0.3574 C   0  0  0  0  0  0  0  0  0  0  0  0
    6.5129    0.0188   -0.4063 H   0  0  0  0  0  0  0  0  0  0  0  0
    5.3400   -1.8106   -0.4158 C   0  0  0  0  0  0  0  0  0  0  0  0
    6.2278   -2.4525   -0.5129 H   0  0  0  0  0  0  0  0  0  0  0  0
    4.0687   -2.4036   -0.3430 C   0  0  0  0  0  0  0  0  0  0  0  0
    3.9420   -3.4948   -0.3733 H   0  0  0  0  0  0  0  0  0  0  0  0
    2.9693   -1.5440   -0.2199 C   0  0  0  0  0  0  0  0  0  0  0  0
    1.5231    1.7796    0.0944 C   0  0  0  0  0  0  0  0  0  0  0  0
    0.7324    2.2102    1.1752 C   0  0  0  0  0  0  0  0  0  0  0  0
    0.3934    1.4791    1.9251 H   0  0  0  0  0  0  0  0  0  0  0  0
    0.3884    3.5670    1.2682 C   0  0  0  0  0  0  0  0  0  0  0  0
   -0.2336    3.9070    2.1097 H   0  0  0  0  0  0  0  0  0  0  0  0
    0.8359    4.4855    0.3045 C   0  0  0  0  0  0  0  0  0  0  0  0
    0.5625    5.5483    0.3858 H   0  0  0  0  0  0  0  0  0  0  0  0
    1.6362    4.0465   -0.7625 C   0  0  0  0  0  0  0  0  0  0  0  0
    1.9861    4.7603   -1.5233 H   0  0  0  0  0  0  0  0  0  0  0  0
    1.9780    2.6901   -0.8749 C   0  0  0  0  0  0  0  0  0  0  0  0
    2.5756    2.3295   -1.7249 H   0  0  0  0  0  0  0  0  0  0  0  0
    0.9951   -3.1063   -0.0684 C   0  0  0  0  0  0  0  0  0  0  0  0
   -0.1027   -2.9573   -0.0417 H   0  0  0  0  0  0  0  0  0  0  0  0
    1.3098   -3.6528    0.8431 H   0  0  0  0  0  0  0  0  0  0  0  0
    1.2800   -3.6894   -0.9673 H   0  0  0  0  0  0  0  0  0  0  0  0
  1  3  1  0  0  0  0
  1 14  1  0  0  0  0
  2 25  1  0  0  0  0
  2  3  1  0  0  0  0
  4  1  1  0  0  0  0
  5  6  1  0  0  0  0
  5  4  2  0  0  0  0
  7  5  1  0  0  0  0
  8  7  1  0  0  0  0
  9  7  2  0  0  0  0
  9 11  1  0  0  0  0
 10  9  1  0  0  0  0
 11 13  2  0  0  0  0
 12 11  1  0  0  0  0
 13  4  1  0  0  0  0
 13  2  1  0  0  0  0
 14 15  1  0  0  0  0
 15 17  2  0  0  0  0
 15 16  1  0  0  0  0
 17 18  1  0  0  0  0
 19 20  1  0  0  0  0
 19 17  1  0  0  0  0
 21 19  2  0  0  0  0
 22 21  1  0  0  0  0
 23 21  1  0  0  0  0
 23 14  2  0  0  0  0
 24 23  1  0  0  0  0
 25 26  1  0  0  0  0
 25 27  1  0  0  0  0
 28 25  1  0  0  0  0
M  END
