1
 OpenBabel05122313113D

 22 22  0  0  0  0  0  0  0  0999 V2000
   -0.3286   -0.0366   -1.6762 C   0  0  0  0  0  2  0  0  0  0  0  0
   -1.4188    0.0845   -1.9073 H   0  0  0  0  0  0  0  0  0  0  0  0
    0.5663    0.3309   -2.8554 C   0  0  0  0  0  0  0  0  0  0  0  0
    1.9436   -0.3565   -2.7732 C   0  0  0  0  0  0  0  0  0  0  0  0
    2.4711   -0.1364   -1.8282 H   0  0  0  0  0  0  0  0  0  0  0  0
    2.5869   -0.0282   -3.6144 H   0  0  0  0  0  0  0  0  0  0  0  0
    1.8196   -1.4560   -2.8352 H   0  0  0  0  0  0  0  0  0  0  0  0
   -0.1182   -0.1263   -4.1591 C   0  0  0  0  0  0  0  0  0  0  0  0
   -1.1466    0.2749   -4.2555 H   0  0  0  0  0  0  0  0  0  0  0  0
   -0.1928   -1.2320   -4.1687 H   0  0  0  0  0  0  0  0  0  0  0  0
    0.4626    0.1864   -5.0507 H   0  0  0  0  0  0  0  0  0  0  0  0
    0.7208    1.8664   -2.7798 C   0  0  0  0  0  0  0  0  0  0  0  0
    0.0247    2.7438   -3.6345 C   0  0  0  0  0  0  0  0  0  0  0  0
   -0.6141    2.3442   -4.4341 H   0  0  0  0  0  0  0  0  0  0  0  0
    0.1229    4.1382   -3.4808 C   0  0  0  0  0  0  0  0  0  0  0  0
   -0.4367    4.7988   -4.1609 H   0  0  0  0  0  0  0  0  0  0  0  0
    0.9266    4.6865   -2.4726 C   0  0  0  0  0  0  0  0  0  0  0  0
    1.0029    5.7777   -2.3519 H   0  0  0  0  0  0  0  0  0  0  0  0
    1.6377    3.8241   -1.6199 C   0  0  0  0  0  0  0  0  0  0  0  0
    2.2795    4.2349   -0.8251 H   0  0  0  0  0  0  0  0  0  0  0  0
    1.5318    2.4361   -1.7722 C   0  0  0  0  0  0  0  0  0  0  0  0
    2.0784    1.7776   -1.0821 H   0  0  0  0  0  0  0  0  0  0  0  0
  2  1  1  0  0  0  0
  3 12  1  0  0  0  0
  3  4  1  0  0  0  0
  3  1  1  0  0  0  0
  4  5  1  0  0  0  0
  6  4  1  0  0  0  0
  7  4  1  0  0  0  0
  8  3  1  0  0  0  0
  9  8  1  0  0  0  0
 10  8  1  0  0  0  0
 11  8  1  0  0  0  0
 12 21  1  0  0  0  0
 13 15  1  0  0  0  0
 13 12  2  0  0  0  0
 14 13  1  0  0  0  0
 15 17  2  0  0  0  0
 16 15  1  0  0  0  0
 17 18  1  0  0  0  0
 17 19  1  0  0  0  0
 19 20  1  0  0  0  0
 21 19  2  0  0  0  0
 21 22  1  0  0  0  0
M  END
