3
 OpenBabel05122313113D

 51 52  0  0  0  0  0  0  0  0999 V2000
   -0.5363   -0.8169    0.8794 N   0  0  0  0  0  0  0  0  0  0  0  0
   -0.5124    0.7205   -0.9262 N   0  0  0  0  0  0  0  0  0  0  0  0
    0.1492   -0.0834   -0.0447 C   0  0  0  0  0  2  0  0  0  0  0  0
    0.2036   -1.6526    1.8290 C   0  0  0  0  0  0  0  0  0  0  0  0
   -0.0543   -2.7200    1.6797 H   0  0  0  0  0  0  0  0  0  0  0  0
   -0.0487   -1.3675    2.8717 H   0  0  0  0  0  0  0  0  0  0  0  0
    1.2927   -1.5191    1.6459 H   0  0  0  0  0  0  0  0  0  0  0  0
    0.2256    1.3504   -2.0240 C   0  0  0  0  0  0  0  0  0  0  0  0
    1.3049    1.1047   -1.9044 H   0  0  0  0  0  0  0  0  0  0  0  0
    0.0817    2.4501   -2.0044 H   0  0  0  0  0  0  0  0  0  0  0  0
   -0.1290    0.9615   -3.0002 H   0  0  0  0  0  0  0  0  0  0  0  0
   -1.9587   -1.0879    0.8942 C   0  0  0  0  0  0  0  0  0  0  0  0
   -2.8083   -0.3698    1.7688 C   0  0  0  0  0  0  0  0  0  0  0  0
   -4.1885   -0.6287    1.7204 C   0  0  0  0  0  0  0  0  0  0  0  0
   -4.8588   -0.0432    2.3708 H   0  0  0  0  0  0  0  0  0  0  0  0
   -4.7332   -1.6042    0.8681 C   0  0  0  0  0  0  0  0  0  0  0  0
   -3.8455   -2.3784    0.1009 C   0  0  0  0  0  0  0  0  0  0  0  0
   -4.2454   -3.1867   -0.5332 H   0  0  0  0  0  0  0  0  0  0  0  0
   -2.4565   -2.1571    0.1062 C   0  0  0  0  0  0  0  0  0  0  0  0
   -2.2724    0.6235    2.7666 C   0  0  0  0  0  0  0  0  0  0  0  0
   -2.8447    1.5712    2.7368 H   0  0  0  0  0  0  0  0  0  0  0  0
   -1.2078    0.8580    2.5900 H   0  0  0  0  0  0  0  0  0  0  0  0
   -2.3625    0.2185    3.7969 H   0  0  0  0  0  0  0  0  0  0  0  0
   -6.2246   -1.7948    0.7616 C   0  0  0  0  0  0  0  0  0  0  0  0
   -6.4887   -2.8323    0.4765 H   0  0  0  0  0  0  0  0  0  0  0  0
   -6.6485   -1.1237   -0.0174 H   0  0  0  0  0  0  0  0  0  0  0  0
   -6.7396   -1.5537    1.7127 H   0  0  0  0  0  0  0  0  0  0  0  0
   -1.5484   -3.0765   -0.6694 C   0  0  0  0  0  0  0  0  0  0  0  0
   -0.5978   -2.6076   -0.9932 H   0  0  0  0  0  0  0  0  0  0  0  0
   -2.0626   -3.4825   -1.5617 H   0  0  0  0  0  0  0  0  0  0  0  0
   -1.2665   -3.9504   -0.0418 H   0  0  0  0  0  0  0  0  0  0  0  0
   -1.8904    1.1470   -0.8532 C   0  0  0  0  0  0  0  0  0  0  0  0
   -2.2040    2.2636   -0.0393 C   0  0  0  0  0  0  0  0  0  0  0  0
   -3.5470    2.6682    0.0447 C   0  0  0  0  0  0  0  0  0  0  0  0
   -3.8039    3.5202    0.6954 H   0  0  0  0  0  0  0  0  0  0  0  0
   -4.5678    2.0136   -0.6686 C   0  0  0  0  0  0  0  0  0  0  0  0
   -4.2029    0.9708   -1.5373 C   0  0  0  0  0  0  0  0  0  0  0  0
   -4.9811    0.4705   -2.1366 H   0  0  0  0  0  0  0  0  0  0  0  0
   -2.8727    0.5345   -1.6651 C   0  0  0  0  0  0  0  0  0  0  0  0
   -1.1294    3.0283    0.6916 C   0  0  0  0  0  0  0  0  0  0  0  0
   -0.5555    3.6728   -0.0088 H   0  0  0  0  0  0  0  0  0  0  0  0
   -0.3921    2.3639    1.1801 H   0  0  0  0  0  0  0  0  0  0  0  0
   -1.5651    3.6897    1.4640 H   0  0  0  0  0  0  0  0  0  0  0  0
   -6.0139    2.3960   -0.4827 C   0  0  0  0  0  0  0  0  0  0  0  0
   -6.4789    1.7825    0.3199 H   0  0  0  0  0  0  0  0  0  0  0  0
   -6.6058    2.2271   -1.4041 H   0  0  0  0  0  0  0  0  0  0  0  0
   -6.1256    3.4580   -0.1876 H   0  0  0  0  0  0  0  0  0  0  0  0
   -2.5176   -0.5320   -2.6673 C   0  0  0  0  0  0  0  0  0  0  0  0
   -2.4793   -0.0988   -3.6901 H   0  0  0  0  0  0  0  0  0  0  0  0
   -3.2803   -1.3341   -2.6812 H   0  0  0  0  0  0  0  0  0  0  0  0
   -1.5337   -0.9912   -2.4635 H   0  0  0  0  0  0  0  0  0  0  0  0
  1 12  1  0  0  0  0
  1  4  1  0  0  0  0
  2 32  1  0  0  0  0
  2  3  1  0  0  0  0
  3  1  1  0  0  0  0
  4  6  1  0  0  0  0
  5  4  1  0  0  0  0
  7  4  1  0  0  0  0
  8 10  1  0  0  0  0
  8  9  1  0  0  0  0
  8  2  1  0  0  0  0
 11  8  1  0  0  0  0
 12 13  1  0  0  0  0
 13 20  1  0  0  0  0
 14 13  2  0  0  0  0
 14 15  1  0  0  0  0
 16 14  1  0  0  0  0
 17 19  1  0  0  0  0
 17 16  2  0  0  0  0
 18 17  1  0  0  0  0
 19 12  2  0  0  0  0
 20 23  1  0  0  0  0
 21 20  1  0  0  0  0
 22 20  1  0  0  0  0
 24 16  1  0  0  0  0
 24 27  1  0  0  0  0
 25 24  1  0  0  0  0
 26 24  1  0  0  0  0
 28 31  1  0  0  0  0
 28 19  1  0  0  0  0
 29 28  1  0  0  0  0
 30 28  1  0  0  0  0
 32 33  1  0  0  0  0
 33 34  2  0  0  0  0
 33 40  1  0  0  0  0
 34 35  1  0  0  0  0
 36 44  1  0  0  0  0
 36 34  1  0  0  0  0
 37 36  2  0  0  0  0
 38 37  1  0  0  0  0
 39 37  1  0  0  0  0
 39 32  2  0  0  0  0
 40 42  1  0  0  0  0
 40 43  1  0  0  0  0
 41 40  1  0  0  0  0
 44 47  1  0  0  0  0
 44 45  1  0  0  0  0
 46 44  1  0  0  0  0
 48 51  1  0  0  0  0
 48 39  1  0  0  0  0
 49 48  1  0  0  0  0
 50 48  1  0  0  0  0
M  END
