6
 OpenBabel05122313113D

 67 71  0  0  1  0  0  0  0  0999 V2000
   -2.7996   -0.5551   -1.0491 C   0  0  0  0  0  0  0  0  0  0  0  0
   -2.1480   -0.8665   -2.3919 C   0  0  0  0  0  0  0  0  0  0  0  0
   -1.1600   -1.3257   -2.1923 H   0  0  0  0  0  0  0  0  0  0  0  0
   -0.6806   -0.9503    0.1396 N   0  0  0  0  0  0  0  0  0  0  0  0
   -0.3111   -2.3859    0.4606 C   0  0  0  0  0  0  0  0  0  0  0  0
    0.3248   -0.1321   -0.1329 C   0  0  0  0  0  2  0  0  0  0  0  0
    1.6307   -0.9033   -0.0469 C   0  0  2  0  0  0  0  0  0  0  0  0
   -3.9566    0.4147    1.3391 C   0  0  0  0  0  0  0  0  0  0  0  0
   -4.4051    0.8362    2.2512 H   0  0  0  0  0  0  0  0  0  0  0  0
    3.7177   -1.2683    1.3689 C   0  0  0  0  0  0  0  0  0  0  0  0
    4.2572   -0.9431    2.2841 H   0  0  0  0  0  0  0  0  0  0  0  0
    3.4894   -2.3456    1.5091 H   0  0  0  0  0  0  0  0  0  0  0  0
    2.9626    0.8445   -1.3815 C   0  0  0  0  0  0  0  0  0  0  0  0
    2.0681    1.4912   -1.5275 H   0  0  0  0  0  0  0  0  0  0  0  0
    3.6031    0.9848   -2.2786 H   0  0  0  0  0  0  0  0  0  0  0  0
   -2.5944    0.0580    1.3479 C   0  0  0  0  0  0  0  0  0  0  0  0
    1.1644   -2.3869    0.0117 C   0  0  0  0  0  0  0  0  0  0  0  0
    1.2351   -2.8244   -1.0055 H   0  0  0  0  0  0  0  0  0  0  0  0
    1.7805   -3.0190    0.6768 H   0  0  0  0  0  0  0  0  0  0  0  0
    2.8191    1.0544    1.1141 C   0  0  0  0  0  0  0  0  0  0  0  0
    1.9153    1.6980    1.0322 H   0  0  0  0  0  0  0  0  0  0  0  0
    3.3503    1.3604    2.0408 H   0  0  0  0  0  0  0  0  0  0  0  0
   -1.1750   -3.3802   -0.3217 C   0  0  0  0  0  0  0  0  0  0  0  0
   -2.2481   -3.2711   -0.0682 H   0  0  0  0  0  0  0  0  0  0  0  0
   -0.8658   -4.4114   -0.0598 H   0  0  0  0  0  0  0  0  0  0  0  0
   -1.0581   -3.2592   -1.4144 H   0  0  0  0  0  0  0  0  0  0  0  0
   -2.0491   -0.4833    0.1545 C   0  0  0  0  0  0  0  0  0  0  0  0
   -1.7414    0.4011    2.5644 C   0  0  0  0  0  0  0  0  0  0  0  0
   -0.7418   -0.0499    2.4168 H   0  0  0  0  0  0  0  0  0  0  0  0
   -4.7388    0.2721    0.1885 C   0  0  0  0  0  0  0  0  0  0  0  0
   -5.8028    0.5525    0.2073 H   0  0  0  0  0  0  0  0  0  0  0  0
   -4.1548   -0.1812   -1.0000 C   0  0  0  0  0  0  0  0  0  0  0  0
   -4.7583   -0.2265   -1.9186 H   0  0  0  0  0  0  0  0  0  0  0  0
   -2.9555   -1.8502   -3.2499 C   0  0  0  0  0  0  0  0  0  0  0  0
   -3.1632   -2.7948   -2.7078 H   0  0  0  0  0  0  0  0  0  0  0  0
   -2.4002   -2.0989   -4.1769 H   0  0  0  0  0  0  0  0  0  0  0  0
   -3.9295   -1.4211   -3.5618 H   0  0  0  0  0  0  0  0  0  0  0  0
    3.8375   -1.4896   -1.1349 C   0  0  0  0  0  0  0  0  0  0  0  0
    3.5933   -2.5721   -1.0929 H   0  0  0  0  0  0  0  0  0  0  0  0
    4.4736   -1.3455   -2.0341 H   0  0  0  0  0  0  0  0  0  0  0  0
    4.6118   -1.0662    0.1301 C   0  0  1  0  0  0  0  0  0  0  0  0
    5.5273   -1.6873    0.2293 H   0  0  0  0  0  0  0  0  0  0  0  0
   -1.8787    0.4528   -3.1421 C   0  0  0  0  0  0  0  0  0  0  0  0
   -1.2573    1.1427   -2.5306 H   0  0  0  0  0  0  0  0  0  0  0  0
   -2.8270    0.9791   -3.3750 H   0  0  0  0  0  0  0  0  0  0  0  0
   -1.3461    0.2606   -4.0961 H   0  0  0  0  0  0  0  0  0  0  0  0
    3.7232    1.2723   -0.1138 C   0  0  1  0  0  0  0  0  0  0  0  0
    3.9861    2.3481   -0.1877 H   0  0  0  0  0  0  0  0  0  0  0  0
    2.4281   -0.4350    1.2274 C   0  0  1  0  0  0  0  0  0  0  0  0
    1.7873   -0.5807    2.1236 H   0  0  0  0  0  0  0  0  0  0  0  0
   -0.4749   -2.6574    1.9638 C   0  0  0  0  0  0  0  0  0  0  0  0
    0.1663   -1.9972    2.5775 H   0  0  0  0  0  0  0  0  0  0  0  0
   -0.1888   -3.7063    2.1769 H   0  0  0  0  0  0  0  0  0  0  0  0
   -1.5268   -2.5218    2.2813 H   0  0  0  0  0  0  0  0  0  0  0  0
   -2.3165   -0.1439    3.8802 C   0  0  0  0  0  0  0  0  0  0  0  0
   -2.4753   -1.2403    3.8440 H   0  0  0  0  0  0  0  0  0  0  0  0
   -3.2907    0.3265    4.1254 H   0  0  0  0  0  0  0  0  0  0  0  0
   -1.6287    0.0752    4.7220 H   0  0  0  0  0  0  0  0  0  0  0  0
    2.5587   -0.6379   -1.2778 C   0  0  1  0  0  0  0  0  0  0  0  0
    2.0052   -0.9383   -2.1946 H   0  0  0  0  0  0  0  0  0  0  0  0
   -1.5344    1.9268    2.6385 C   0  0  0  0  0  0  0  0  0  0  0  0
   -1.0934    2.3288    1.7013 H   0  0  0  0  0  0  0  0  0  0  0  0
   -0.8551    2.1856    3.4766 H   0  0  0  0  0  0  0  0  0  0  0  0
   -2.4971    2.4529    2.8043 H   0  0  0  0  0  0  0  0  0  0  0  0
    4.9993    0.4217    0.0245 C   0  0  0  0  0  0  0  0  0  0  0  0
    5.6633    0.5824   -0.8521 H   0  0  0  0  0  0  0  0  0  0  0  0
    5.5726    0.7300    0.9255 H   0  0  0  0  0  0  0  0  0  0  0  0
  1 32  2  0  0  0  0
  1 27  1  0  0  0  0
  2  3  1  0  0  0  0
  2  1  1  0  0  0  0
  4 27  1  0  0  0  0
  4  5  1  0  0  0  0
  5 51  1  0  0  0  0
  6  4  1  0  0  0  0
  7  6  1  6  0  0  0
  7 17  1  0  0  0  0
  7 49  1  0  0  0  0
  8 16  1  0  0  0  0
  8  9  1  0  0  0  0
 10 12  1  0  0  0  0
 10 11  1  0  0  0  0
 13 59  1  0  0  0  0
 13 47  1  0  0  0  0
 14 13  1  0  0  0  0
 15 13  1  0  0  0  0
 16 28  1  0  0  0  0
 17  5  1  0  0  0  0
 17 19  1  0  0  0  0
 18 17  1  0  0  0  0
 20 49  1  0  0  0  0
 20 22  1  0  0  0  0
 21 20  1  0  0  0  0
 23 24  1  0  0  0  0
 23 25  1  0  0  0  0
 23  5  1  0  0  0  0
 26 23  1  0  0  0  0
 27 16  2  0  0  0  0
 28 61  1  0  0  0  0
 28 55  1  0  0  0  0
 29 28  1  0  0  0  0
 30 31  1  0  0  0  0
 30  8  2  0  0  0  0
 32 30  1  0  0  0  0
 33 32  1  0  0  0  0
 34 35  1  0  0  0  0
 34  2  1  0  0  0  0
 36 34  1  0  0  0  0
 37 34  1  0  0  0  0
 38 39  1  0  0  0  0
 38 41  1  0  0  0  0
 40 38  1  0  0  0  0
 41 42  1  1  0  0  0
 41 10  1  0  0  0  0
 43 44  1  0  0  0  0
 43  2  1  0  0  0  0
 45 43  1  0  0  0  0
 46 43  1  0  0  0  0
 47 48  1  6  0  0  0
 47 65  1  0  0  0  0
 47 20  1  0  0  0  0
 49 10  1  0  0  0  0
 49 50  1  1  0  0  0
 51 53  1  0  0  0  0
 51 54  1  0  0  0  0
 51 52  1  0  0  0  0
 55 57  1  0  0  0  0
 55 58  1  0  0  0  0
 56 55  1  0  0  0  0
 59 60  1  6  0  0  0
 59 38  1  0  0  0  0
 59  7  1  0  0  0  0
 61 64  1  0  0  0  0
 61 63  1  0  0  0  0
 62 61  1  0  0  0  0
 65 41  1  0  0  0  0
 65 67  1  0  0  0  0
 66 65  1  0  0  0  0
M  END
