1
 OpenBabel05122313113D

 26 27  0  0  0  0  0  0  0  0999 V2000
   -0.5235    1.4088    0.3047 C   0  0  0  0  0  3  0  0  0  0  0  0
    0.6402    0.7908    0.3389 C   0  0  0  0  0  3  0  0  0  0  0  0
    2.0069    0.7246    0.2741 C   0  0  0  0  0  0  0  0  0  0  0  0
    3.2392    0.5876    0.1987 C   0  0  0  0  0  0  0  0  0  0  0  0
    4.6459    0.4296    0.1071 C   0  0  0  0  0  0  0  0  0  0  0  0
    5.2338   -0.8641    0.1689 C   0  0  0  0  0  0  0  0  0  0  0  0
    6.6204   -1.0198    0.0737 C   0  0  0  0  0  0  0  0  0  0  0  0
    7.4531    0.1016   -0.0833 C   0  0  0  0  0  0  0  0  0  0  0  0
    6.8861    1.3864   -0.1445 C   0  0  0  0  0  0  0  0  0  0  0  0
    5.5009    1.5548   -0.0512 C   0  0  0  0  0  0  0  0  0  0  0  0
   -1.2135    2.6615    0.1584 C   0  0  0  0  0  0  0  0  0  0  0  0
   -0.4965    3.8584   -0.1075 C   0  0  0  0  0  0  0  0  0  0  0  0
   -1.1773    5.0693   -0.2660 C   0  0  0  0  0  0  0  0  0  0  0  0
   -2.5799    5.1160   -0.1618 C   0  0  0  0  0  0  0  0  0  0  0  0
   -3.2995    3.9390    0.1069 C   0  0  0  0  0  0  0  0  0  0  0  0
   -2.6255    2.7227    0.2663 C   0  0  0  0  0  0  0  0  0  0  0  0
    4.5790   -1.7387    0.2956 H   0  0  0  0  0  0  0  0  0  0  0  0
    7.0590   -2.0282    0.1242 H   0  0  0  0  0  0  0  0  0  0  0  0
    8.5437   -0.0254   -0.1566 H   0  0  0  0  0  0  0  0  0  0  0  0
    7.5336    2.2682   -0.2659 H   0  0  0  0  0  0  0  0  0  0  0  0
    5.0542    2.5585   -0.0979 H   0  0  0  0  0  0  0  0  0  0  0  0
    0.6000    3.8152   -0.1886 H   0  0  0  0  0  0  0  0  0  0  0  0
   -0.6110    5.9905   -0.4727 H   0  0  0  0  0  0  0  0  0  0  0  0
   -3.1106    6.0720   -0.2869 H   0  0  0  0  0  0  0  0  0  0  0  0
   -4.3962    3.9732    0.1967 H   0  0  0  0  0  0  0  0  0  0  0  0
   -3.1676    1.7911    0.4880 H   0  0  0  0  0  0  0  0  0  0  0  0
  1  2  2  0  0  0  0
  3  2  1  0  0  0  0
  4  3  3  0  0  0  0
  5  6  1  0  0  0  0
  5  4  1  0  0  0  0
  6 17  1  0  0  0  0
  7 18  1  0  0  0  0
  7  6  2  0  0  0  0
  8  7  1  0  0  0  0
  9  8  2  0  0  0  0
  9 10  1  0  0  0  0
 10  5  2  0  0  0  0
 11 16  1  0  0  0  0
 11  1  1  0  0  0  0
 12 11  2  0  0  0  0
 13 14  2  0  0  0  0
 13 12  1  0  0  0  0
 14 15  1  0  0  0  0
 15 25  1  0  0  0  0
 15 16  2  0  0  0  0
 16 26  1  0  0  0  0
 19  8  1  0  0  0  0
 20  9  1  0  0  0  0
 21 10  1  0  0  0  0
 22 12  1  0  0  0  0
 23 13  1  0  0  0  0
 24 14  1  0  0  0  0
M  END
