1
 OpenBabel05122313113D

 33 35  0  0  0  0  0  0  0  0999 V2000
   -1.9960    1.1997    0.2272 C   0  0  0  0  0  2  0  0  0  0  0  0
   -1.0381    1.8640   -0.4938 N   0  0  0  0  0  0  0  0  0  0  0  0
   -2.3749    2.0909    1.1964 N   0  0  0  0  0  0  0  0  0  0  0  0
   -0.8135    3.1321    0.0211 C   0  0  0  0  0  0  0  0  0  0  0  0
   -0.0722    3.8150   -0.4041 H   0  0  0  0  0  0  0  0  0  0  0  0
   -1.6630    3.2777    1.0864 C   0  0  0  0  0  0  0  0  0  0  0  0
   -1.8212    4.1208    1.7655 H   0  0  0  0  0  0  0  0  0  0  0  0
   -3.3886    1.8249    2.2057 C   0  0  0  0  0  0  0  0  0  0  0  0
   -3.7771    0.8034    2.0371 H   0  0  0  0  0  0  0  0  0  0  0  0
   -4.2197    2.5523    2.1199 H   0  0  0  0  0  0  0  0  0  0  0  0
   -2.9481    1.8860    3.2202 H   0  0  0  0  0  0  0  0  0  0  0  0
   -0.2890    1.2702   -1.6060 C   0  0  0  0  0  0  0  0  0  0  0  0
   -0.2839    1.9910   -2.4479 H   0  0  0  0  0  0  0  0  0  0  0  0
   -0.8696    0.3780   -1.9169 H   0  0  0  0  0  0  0  0  0  0  0  0
    1.1212    0.8948   -1.2141 C   0  0  0  0  0  0  0  0  0  0  0  0
    1.3578   -0.1772   -0.3250 C   0  0  0  0  0  0  0  0  0  0  0  0
    0.5019   -0.7600    0.0663 H   0  0  0  0  0  0  0  0  0  0  0  0
    2.2411    1.5982   -1.6908 C   0  0  0  0  0  0  0  0  0  0  0  0
    2.1102    2.4365   -2.3950 H   0  0  0  0  0  0  0  0  0  0  0  0
    3.5201    1.2206   -1.2718 C   0  0  0  0  0  0  0  0  0  0  0  0
    4.4332    1.7291   -1.6103 H   0  0  0  0  0  0  0  0  0  0  0  0
    3.6443    0.1390   -0.3749 C   0  0  0  0  0  0  0  0  0  0  0  0
    4.9882   -0.2952    0.1004 C   0  0  0  0  0  0  0  0  0  0  0  0
    5.1117   -1.3895    0.9831 C   0  0  0  0  0  0  0  0  0  0  0  0
    4.1992   -1.9082    1.3076 H   0  0  0  0  0  0  0  0  0  0  0  0
    6.3906   -1.7679    1.4055 C   0  0  0  0  0  0  0  0  0  0  0  0
    6.5220   -2.6178    2.0927 H   0  0  0  0  0  0  0  0  0  0  0  0
    7.4999   -1.0471    0.9376 C   0  0  0  0  0  0  0  0  0  0  0  0
    8.5241   -1.3087    1.2421 H   0  0  0  0  0  0  0  0  0  0  0  0
    7.2712    0.0278    0.0608 C   0  0  0  0  0  0  0  0  0  0  0  0
    8.1212    0.6173   -0.3277 H   0  0  0  0  0  0  0  0  0  0  0  0
    2.5739   -0.5446    0.0840 N   0  0  0  0  0  0  0  0  0  0  0  0
    6.0536    0.4000   -0.3511 N   0  0  0  0  0  0  0  0  0  0  0  0
  1  3  1  0  0  0  0
  2  4  1  0  0  0  0
  2  1  1  0  0  0  0
  3  8  1  0  0  0  0
  4  6  2  0  0  0  0
  5  4  1  0  0  0  0
  6  3  1  0  0  0  0
  6  7  1  0  0  0  0
  8 11  1  0  0  0  0
  9  8  1  0  0  0  0
 10  8  1  0  0  0  0
 12 15  1  0  0  0  0
 12  2  1  0  0  0  0
 13 12  1  0  0  0  0
 14 12  1  0  0  0  0
 15 16  1  0  0  0  0
 16 17  1  0  0  0  0
 16 32  2  0  0  0  0
 18 20  1  0  0  0  0
 18 15  2  0  0  0  0
 19 18  1  0  0  0  0
 20 22  2  0  0  0  0
 21 20  1  0  0  0  0
 22 32  1  0  0  0  0
 22 23  1  0  0  0  0
 23 24  1  0  0  0  0
 24 25  1  0  0  0  0
 24 26  2  0  0  0  0
 26 27  1  0  0  0  0
 28 29  1  0  0  0  0
 28 26  1  0  0  0  0
 30 28  2  0  0  0  0
 31 30  1  0  0  0  0
 33 30  1  0  0  0  0
 33 23  2  0  0  0  0
M  END
