1
 OpenBabel05122313113D

 11 11  0  0  0  0  0  0  0  0999 V2000
    1.2701   -0.8209   -0.1710 C   0  0  0  0  0  3  0  0  0  0  0  0
    1.7067   -1.3677    1.0422 C   0  0  0  0  0  0  0  0  0  0  0  0
    3.0324   -1.7800    1.2548 C   0  0  0  0  0  0  0  0  0  0  0  0
    3.9787   -1.6719    0.2282 C   0  0  0  0  0  0  0  0  0  0  0  0
    5.0170   -1.9924    0.3838 H   0  0  0  0  0  0  0  0  0  0  0  0
    3.5641   -1.1487   -1.0026 C   0  0  0  0  0  0  0  0  0  0  0  0
    2.2287   -0.7575   -1.1875 C   0  0  0  0  0  0  0  0  0  0  0  0
    1.8827   -0.2662   -2.4131 F   0  0  0  0  0  0  0  0  0  0  0  0
    4.4447   -1.0309   -2.0145 F   0  0  0  0  0  0  0  0  0  0  0  0
    3.3943   -2.2809    2.4515 F   0  0  0  0  0  0  0  0  0  0  0  0
    0.8426   -1.4818    2.0910 F   0  0  0  0  0  0  0  0  0  0  0  0
  1  2  1  0  0  0  0
  2  3  2  0  0  0  0
  2 11  1  0  0  0  0
  3 10  1  0  0  0  0
  4  5  1  0  0  0  0
  4  3  1  0  0  0  0
  6  4  2  0  0  0  0
  7  6  1  0  0  0  0
  7  1  2  0  0  0  0
  8  7  1  0  0  0  0
  9  6  1  0  0  0  0
M  END
