1
 OpenBabel05122313113D

  5  4  0  0  0  0  0  0  0  0999 V2000
    0.0217   -0.6917    1.6844 C   0  0  0  0  0  3  0  0  0  0  0  0
    0.4484   -1.6687    1.9896 H   0  0  0  0  0  0  0  0  0  0  0  0
   -0.3448    0.1421    2.6902 C   0  0  0  0  0  0  0  0  0  0  0  0
   -0.7911    1.1363    2.5038 H   0  0  0  0  0  0  0  0  0  0  0  0
   -0.2128   -0.1375    3.7512 H   0  0  0  0  0  0  0  0  0  0  0  0
  1  2  1  0  0  0  0
  1  3  2  0  0  0  0
  3  5  1  0  0  0  0
  4  3  1  0  0  0  0
M  END
