1
 OpenBabel05122313113D

 10  9  0  0  0  0  0  0  0  0999 V2000
   -0.6580    2.2537   -0.0022 C   0  0  0  0  0  0  0  0  0  0  0  0
    0.6576    2.2539    0.0027 C   0  0  0  0  0  0  0  0  0  0  0  0
   -1.8142    3.1745   -0.0232 C   0  0  0  0  0  0  0  0  0  0  0  0
   -2.5695    2.9821   -1.1466 F   0  0  0  0  0  0  0  0  0  0  0  0
   -2.6399    2.9647    1.0398 F   0  0  0  0  0  0  0  0  0  0  0  0
   -1.4682    4.4826   -0.0033 F   0  0  0  0  0  0  0  0  0  0  0  0
    1.8135    3.1749    0.0234 C   0  0  0  0  0  0  0  0  0  0  0  0
    1.4671    4.4830    0.0041 F   0  0  0  0  0  0  0  0  0  0  0  0
    2.6388    2.9658   -1.0401 F   0  0  0  0  0  0  0  0  0  0  0  0
    2.5695    2.9825    1.1463 F   0  0  0  0  0  0  0  0  0  0  0  0
  1  2  2  0  0  0  0
  2  7  1  0  0  0  0
  3  6  1  0  0  0  0
  3  1  1  0  0  0  0
  3  5  1  0  0  0  0
  4  3  1  0  0  0  0
  7 10  1  0  0  0  0
  8  7  1  0  0  0  0
  9  7  1  0  0  0  0
M  END
