3
 OpenBabel05122313113D

 44 47  0  0  1  0  0  0  0  0999 V2000
    0.1843   -2.4042    0.2758 N   0  0  0  0  0  0  0  0  0  0  0  0
   -1.9166   -1.7856    0.4778 N   0  0  0  0  0  0  0  0  0  0  0  0
   -0.6186   -1.3022    0.3795 C   0  0  0  0  0  2  0  0  0  0  0  0
   -3.0932   -1.0055    0.3473 C   0  0  0  0  0  0  0  0  0  0  0  0
   -3.2952    0.1210    1.1677 C   0  0  0  0  0  0  0  0  0  0  0  0
   -2.5350    0.3781    1.9219 H   0  0  0  0  0  0  0  0  0  0  0  0
   -4.4603    0.8865    1.0306 C   0  0  0  0  0  0  0  0  0  0  0  0
   -4.6091    1.7662    1.6749 H   0  0  0  0  0  0  0  0  0  0  0  0
   -5.4382    0.5187    0.0941 C   0  0  0  0  0  0  0  0  0  0  0  0
   -6.3576    1.1130   -0.0150 H   0  0  0  0  0  0  0  0  0  0  0  0
   -5.2414   -0.6213   -0.6979 C   0  0  0  0  0  0  0  0  0  0  0  0
   -6.0073   -0.9142   -1.4343 H   0  0  0  0  0  0  0  0  0  0  0  0
   -4.0761   -1.4012   -0.5930 C   0  0  0  0  0  0  0  0  0  0  0  0
   -3.8949   -2.6335   -1.4586 C   0  0  0  0  0  0  0  0  0  0  0  0
   -4.1377   -2.3790   -2.5109 H   0  0  0  0  0  0  0  0  0  0  0  0
   -4.6503   -3.3906   -1.1490 H   0  0  0  0  0  0  0  0  0  0  0  0
   -2.4919   -3.2463   -1.3764 C   0  0  0  0  0  0  0  0  0  0  0  0
   -2.4953   -4.2892   -1.7552 H   0  0  0  0  0  0  0  0  0  0  0  0
   -1.7801   -2.6570   -1.9917 H   0  0  0  0  0  0  0  0  0  0  0  0
   -2.0015   -3.2010    0.0752 C   0  0  1  0  0  0  0  0  0  0  0  0
   -2.7149   -3.7332    0.7396 H   0  0  0  0  0  0  0  0  0  0  0  0
   -0.5631   -3.6670    0.3068 C   0  0  0  0  0  0  0  0  0  0  0  0
   -0.4336   -4.1720    1.2904 H   0  0  0  0  0  0  0  0  0  0  0  0
   -0.2034   -4.3580   -0.4826 H   0  0  0  0  0  0  0  0  0  0  0  0
    1.6102   -2.4422    0.2645 C   0  0  0  0  0  0  0  0  0  0  0  0
    2.3161   -2.3368    1.4855 C   0  0  0  0  0  0  0  0  0  0  0  0
    3.7211   -2.3611    1.4335 C   0  0  0  0  0  0  0  0  0  0  0  0
    4.2863   -2.2647    2.3746 H   0  0  0  0  0  0  0  0  0  0  0  0
    4.4212   -2.4942    0.2188 C   0  0  0  0  0  0  0  0  0  0  0  0
    3.6801   -2.5999   -0.9739 C   0  0  0  0  0  0  0  0  0  0  0  0
    4.2119   -2.6840   -1.9354 H   0  0  0  0  0  0  0  0  0  0  0  0
    2.2740   -2.5734   -0.9777 C   0  0  0  0  0  0  0  0  0  0  0  0
    1.5811   -2.1321    2.7826 C   0  0  0  0  0  0  0  0  0  0  0  0
    2.2658   -2.2220    3.6470 H   0  0  0  0  0  0  0  0  0  0  0  0
    0.7615   -2.8679    2.9130 H   0  0  0  0  0  0  0  0  0  0  0  0
    1.1064   -1.1266    2.8162 H   0  0  0  0  0  0  0  0  0  0  0  0
    5.9287   -2.5442    0.2017 C   0  0  0  0  0  0  0  0  0  0  0  0
    6.3676   -1.8736    0.9670 H   0  0  0  0  0  0  0  0  0  0  0  0
    6.3368   -2.2571   -0.7871 H   0  0  0  0  0  0  0  0  0  0  0  0
    6.2946   -3.5702    0.4226 H   0  0  0  0  0  0  0  0  0  0  0  0
    1.4904   -2.5796   -2.2639 C   0  0  0  0  0  0  0  0  0  0  0  0
    0.8449   -1.6777   -2.3379 H   0  0  0  0  0  0  0  0  0  0  0  0
    0.8149   -3.4580   -2.3374 H   0  0  0  0  0  0  0  0  0  0  0  0
    2.1652   -2.6032   -3.1402 H   0  0  0  0  0  0  0  0  0  0  0  0
  1 22  1  0  0  0  0
  1  3  1  0  0  0  0
  3  2  1  0  0  0  0
  4  2  1  0  0  0  0
  4  5  1  0  0  0  0
  5  6  1  0  0  0  0
  7  5  2  0  0  0  0
  7  8  1  0  0  0  0
  9  7  1  0  0  0  0
 10  9  1  0  0  0  0
 11 13  1  0  0  0  0
 11  9  2  0  0  0  0
 12 11  1  0  0  0  0
 13  4  2  0  0  0  0
 14 17  1  0  0  0  0
 14 16  1  0  0  0  0
 14 13  1  0  0  0  0
 15 14  1  0  0  0  0
 17 20  1  0  0  0  0
 18 17  1  0  0  0  0
 19 17  1  0  0  0  0
 20 22  1  0  0  0  0
 20  2  1  0  0  0  0
 20 21  1  1  0  0  0
 22 23  1  0  0  0  0
 24 22  1  0  0  0  0
 25  1  1  0  0  0  0
 25 26  1  0  0  0  0
 26 33  1  0  0  0  0
 27 26  2  0  0  0  0
 27 28  1  0  0  0  0
 29 27  1  0  0  0  0
 30 29  2  0  0  0  0
 31 30  1  0  0  0  0
 32 30  1  0  0  0  0
 32 25  2  0  0  0  0
 33 36  1  0  0  0  0
 33 35  1  0  0  0  0
 33 34  1  0  0  0  0
 37 29  1  0  0  0  0
 37 40  1  0  0  0  0
 37 38  1  0  0  0  0
 39 37  1  0  0  0  0
 41 32  1  0  0  0  0
 42 41  1  0  0  0  0
 43 41  1  0  0  0  0
 44 41  1  0  0  0  0
M  END
