14
 OpenBabel05122313113D

 30 33  0  0  1  0  0  0  0  0999 V2000
    2.4049   -0.5634   -0.3940 C   0  0  0  0  0  3  0  0  0  0  0  0
    3.4430   -1.1833    0.6183 C   0  0  2  0  0  0  0  0  0  0  0  0
    3.9744    0.0563    1.3687 C   0  0  0  0  0  0  0  0  0  0  0  0
    4.3841    0.7934    0.0727 C   0  0  1  0  0  0  0  0  0  0  0  0
    5.1962   -0.2917   -0.6166 C   0  0  0  0  0  0  0  0  0  0  0  0
    4.6365   -1.4789   -0.2839 C   0  0  0  0  0  0  0  0  0  0  0  0
    2.9889    0.8641   -0.6490 C   0  0  2  0  0  0  0  0  0  0  0  0
    2.1102    1.9907   -0.0773 C   0  0  1  0  0  0  0  0  0  0  0  0
    1.9535    3.2038   -1.0653 C   0  0  2  0  0  0  0  0  0  0  0  0
    1.2052    4.2921   -0.3124 C   0  0  0  0  0  0  0  0  0  0  0  0
   -0.0731    3.8706   -0.1672 C   0  0  0  0  0  0  0  0  0  0  0  0
   -0.1688    2.4902   -0.8081 C   0  0  1  0  0  0  0  0  0  0  0  0
    0.8248    2.6750   -1.9762 C   0  0  0  0  0  0  0  0  0  0  0  0
    0.6286    1.5575    0.1821 C   0  0  0  0  0  3  0  0  0  0  0  0
    2.4881   -1.1523   -1.3215 H   0  0  0  0  0  0  0  0  0  0  0  0
    3.0638   -2.0147    1.2381 H   0  0  0  0  0  0  0  0  0  0  0  0
    3.1921    0.5666    1.9599 H   0  0  0  0  0  0  0  0  0  0  0  0
    4.8424   -0.1796    2.0159 H   0  0  0  0  0  0  0  0  0  0  0  0
    4.8731    1.7811    0.1817 H   0  0  0  0  0  0  0  0  0  0  0  0
    6.0058   -0.1154   -1.3402 H   0  0  0  0  0  0  0  0  0  0  0  0
    4.8857   -2.4694   -0.6944 H   0  0  0  0  0  0  0  0  0  0  0  0
    3.1307    1.0272   -1.7383 H   0  0  0  0  0  0  0  0  0  0  0  0
    2.5595    2.3455    0.8717 H   0  0  0  0  0  0  0  0  0  0  0  0
    2.9008    3.5047   -1.5529 H   0  0  0  0  0  0  0  0  0  0  0  0
    1.6672    5.1841    0.1348 H   0  0  0  0  0  0  0  0  0  0  0  0
   -0.8641    4.3515    0.4291 H   0  0  0  0  0  0  0  0  0  0  0  0
   -1.1851    2.1480   -1.0748 H   0  0  0  0  0  0  0  0  0  0  0  0
    0.4808    3.4247   -2.7163 H   0  0  0  0  0  0  0  0  0  0  0  0
    1.0876    1.7359   -2.4989 H   0  0  0  0  0  0  0  0  0  0  0  0
    0.3793    1.8371    1.2212 H   0  0  0  0  0  0  0  0  0  0  0  0
  1  2  1  0  0  0  0
  2 16  1  1  0  0  0
  2  3  1  0  0  0  0
  3 17  1  0  0  0  0
  3 18  1  0  0  0  0
  4 19  1  1  0  0  0
  4  3  1  0  0  0  0
  5  6  2  0  0  0  0
  5  4  1  0  0  0  0
  6  2  1  0  0  0  0
  7 22  1  6  0  0  0
  7  1  1  0  0  0  0
  7  8  1  0  0  0  0
  7  4  1  0  0  0  0
  8 14  1  0  0  0  0
  8 23  1  1  0  0  0
  9 24  1  6  0  0  0
  9 10  1  0  0  0  0
  9  8  1  0  0  0  0
 10 11  2  0  0  0  0
 10 25  1  0  0  0  0
 11 26  1  0  0  0  0
 12 27  1  6  0  0  0
 12 11  1  0  0  0  0
 12 14  1  0  0  0  0
 13  9  1  0  0  0  0
 13 12  1  0  0  0  0
 14 30  1  0  0  0  0
 15  1  1  0  0  0  0
 20  5  1  0  0  0  0
 21  6  1  0  0  0  0
 28 13  1  0  0  0  0
 29 13  1  0  0  0  0
M  END
