1
 OpenBabel05122313113D

 14 14  0  0  0  0  0  0  0  0999 V2000
   -3.4613    1.2307    0.0176 C   0  0  0  0  0  3  0  0  0  0  0  0
   -4.1561    1.3920   -1.2103 C   0  0  0  0  0  0  0  0  0  0  0  0
   -5.5576    1.5501   -1.1846 C   0  0  0  0  0  0  0  0  0  0  0  0
   -6.0962    1.6756   -2.1386 H   0  0  0  0  0  0  0  0  0  0  0  0
   -6.2716    1.5504    0.0239 C   0  0  0  0  0  0  0  0  0  0  0  0
   -7.3657    1.6711    0.0175 H   0  0  0  0  0  0  0  0  0  0  0  0
   -5.5814    1.3952    1.2349 C   0  0  0  0  0  0  0  0  0  0  0  0
   -6.1278    1.3903    2.1910 H   0  0  0  0  0  0  0  0  0  0  0  0
   -4.1856    1.2354    1.2254 C   0  0  0  0  0  0  0  0  0  0  0  0
   -3.6586    1.0960    2.1836 H   0  0  0  0  0  0  0  0  0  0  0  0
   -3.4057    1.3888   -2.5207 C   0  0  0  0  0  0  0  0  0  0  0  0
   -2.9688    0.3898   -2.7369 H   0  0  0  0  0  0  0  0  0  0  0  0
   -2.5522    2.0991   -2.4958 H   0  0  0  0  0  0  0  0  0  0  0  0
   -4.0601    1.6602   -3.3726 H   0  0  0  0  0  0  0  0  0  0  0  0
  1  9  1  0  0  0  0
  2  3  1  0  0  0  0
  2  1  2  0  0  0  0
  3  5  2  0  0  0  0
  4  3  1  0  0  0  0
  5  7  1  0  0  0  0
  6  5  1  0  0  0  0
  7  8  1  0  0  0  0
  9  7  2  0  0  0  0
  9 10  1  0  0  0  0
 11 13  1  0  0  0  0
 11  2  1  0  0  0  0
 12 11  1  0  0  0  0
 14 11  1  0  0  0  0
M  END
