1
 OpenBabel05122313113D

 12 12  0  0  0  0  0  0  0  0999 V2000
   -1.9784   -1.3640    0.0000 C   0  0  0  0  0  3  0  0  0  0  0  0
   -2.8039   -2.2922   -0.0001 C   0  0  0  0  0  0  0  0  0  0  0  0
   -3.7836   -3.3227   -0.0001 C   0  0  0  0  0  0  0  0  0  0  0  0
   -5.1719   -3.0251   -0.0005 C   0  0  0  0  0  0  0  0  0  0  0  0
   -6.0971   -4.0754   -0.0005 C   0  0  0  0  0  0  0  0  0  0  0  0
   -5.7636   -5.3787   -0.0003 N   0  0  0  0  0  0  0  0  0  0  0  0
   -4.4499   -5.6637    0.0000 C   0  0  0  0  0  0  0  0  0  0  0  0
   -3.4357   -4.6988    0.0001 C   0  0  0  0  0  0  0  0  0  0  0  0
   -2.3771   -4.9985    0.0004 H   0  0  0  0  0  0  0  0  0  0  0  0
   -4.1826   -6.7367    0.0002 H   0  0  0  0  0  0  0  0  0  0  0  0
   -7.1790   -3.8485   -0.0008 H   0  0  0  0  0  0  0  0  0  0  0  0
   -5.5049   -1.9772   -0.0006 H   0  0  0  0  0  0  0  0  0  0  0  0
  2  1  3  0  0  0  0
  3  2  1  0  0  0  0
  3  8  1  0  0  0  0
  4  3  2  0  0  0  0
  5  4  1  0  0  0  0
  5  6  2  0  0  0  0
  6  7  1  0  0  0  0
  7  8  2  0  0  0  0
  7 10  1  0  0  0  0
  8  9  1  0  0  0  0
 11  5  1  0  0  0  0
 12  4  1  0  0  0  0
M  END
