4
 OpenBabel05122313113D

  7  6  0  0  0  0  0  0  0  0999 V2000
   -2.9591   -1.3731    0.7088 F   0  0  0  0  0  0  0  0  0  0  0  0
   -4.0688    0.2433   -0.2402 F   0  0  0  0  0  0  0  0  0  0  0  0
   -2.5413    0.7054    1.2443 F   0  0  0  0  0  0  0  0  0  0  0  0
   -1.7933   -0.0385   -0.9054 C   0  0  0  0  0  3  0  0  0  0  0  0
   -1.8544    0.9938   -1.3171 H   0  0  0  0  0  0  0  0  0  0  0  0
   -2.1155   -0.7272   -1.7128 H   0  0  0  0  0  0  0  0  0  0  0  0
   -2.8175   -0.1257    0.1865 C   0  0  0  0  0  0  0  0  0  0  0  0
  2  7  1  0  0  0  0
  4  7  1  0  0  0  0
  5  4  1  0  0  0  0
  6  4  1  0  0  0  0
  7  1  1  0  0  0  0
  7  3  1  0  0  0  0
M  END
