2
 OpenBabel05122313113D

 34 34  0  0  1  0  0  0  0  0999 V2000
    3.8130   -0.2957   -0.5813 Si  0  0  0  0  0  0  0  0  0  0  0  0
    2.5225    0.2755    0.6637 C   0  0  1  0  0  3  0  0  0  0  0  0
    2.0195   -0.4208    1.8287 C   0  0  0  0  0  0  0  0  0  0  0  0
    1.1970    0.4758    2.5755 C   0  0  0  0  0  0  0  0  0  0  0  0
    1.1824    1.7386    1.8883 C   0  0  0  0  0  0  0  0  0  0  0  0
    2.0118    1.6291    0.7319 C   0  0  0  0  0  0  0  0  0  0  0  0
    2.3200   -1.8394    2.2360 C   0  0  0  0  0  0  0  0  0  0  0  0
    3.3531   -1.9414    2.6346 H   0  0  0  0  0  0  0  0  0  0  0  0
    2.2388   -2.5580    1.3969 H   0  0  0  0  0  0  0  0  0  0  0  0
    1.6331   -2.1825    3.0342 H   0  0  0  0  0  0  0  0  0  0  0  0
    0.5501    0.2182    3.9054 C   0  0  0  0  0  0  0  0  0  0  0  0
    1.1721    0.6158    4.7375 H   0  0  0  0  0  0  0  0  0  0  0  0
    0.4021   -0.8625    4.0967 H   0  0  0  0  0  0  0  0  0  0  0  0
   -0.4448    0.7002    3.9853 H   0  0  0  0  0  0  0  0  0  0  0  0
    0.4832    2.9723    2.3874 C   0  0  0  0  0  0  0  0  0  0  0  0
    1.0910    3.5010    3.1544 H   0  0  0  0  0  0  0  0  0  0  0  0
   -0.4878    2.7307    2.8659 H   0  0  0  0  0  0  0  0  0  0  0  0
    0.2776    3.6962    1.5756 H   0  0  0  0  0  0  0  0  0  0  0  0
    2.3694    2.7643   -0.1910 C   0  0  0  0  0  0  0  0  0  0  0  0
    1.9313    3.7170    0.1606 H   0  0  0  0  0  0  0  0  0  0  0  0
    2.0163    2.6137   -1.2302 H   0  0  0  0  0  0  0  0  0  0  0  0
    3.4695    2.9117   -0.2354 H   0  0  0  0  0  0  0  0  0  0  0  0
    5.5104    0.3927   -0.0882 C   0  0  0  0  0  0  0  0  0  0  0  0
    6.2944    0.0950   -0.8153 H   0  0  0  0  0  0  0  0  0  0  0  0
    5.8072    0.0189    0.9131 H   0  0  0  0  0  0  0  0  0  0  0  0
    5.4918    1.5005   -0.0392 H   0  0  0  0  0  0  0  0  0  0  0  0
    3.9737   -2.1885   -0.6809 C   0  0  0  0  0  0  0  0  0  0  0  0
    4.6887   -2.4463   -1.4900 H   0  0  0  0  0  0  0  0  0  0  0  0
    3.0073   -2.6779   -0.9172 H   0  0  0  0  0  0  0  0  0  0  0  0
    4.3584   -2.6296    0.2594 H   0  0  0  0  0  0  0  0  0  0  0  0
    3.4119    0.3135   -2.3393 C   0  0  0  0  0  0  0  0  0  0  0  0
    2.3526    0.1363   -2.6153 H   0  0  0  0  0  0  0  0  0  0  0  0
    4.0501   -0.2152   -3.0778 H   0  0  0  0  0  0  0  0  0  0  0  0
    3.6020    1.3989   -2.4502 H   0  0  0  0  0  0  0  0  0  0  0  0
  1 23  1  0  0  0  0
  2  1  1  1  0  0  0
  2  6  1  0  0  0  0
  2  3  1  0  0  0  0
  3  7  1  0  0  0  0
  3  4  2  0  0  0  0
  4 11  1  0  0  0  0
  5 15  1  0  0  0  0
  5  4  1  0  0  0  0
  6  5  2  0  0  0  0
  7  8  1  0  0  0  0
  7 10  1  0  0  0  0
  9  7  1  0  0  0  0
 11 14  1  0  0  0  0
 11 13  1  0  0  0  0
 11 12  1  0  0  0  0
 15 17  1  0  0  0  0
 15 16  1  0  0  0  0
 18 15  1  0  0  0  0
 19 20  1  0  0  0  0
 19  6  1  0  0  0  0
 21 19  1  0  0  0  0
 22 19  1  0  0  0  0
 23 26  1  0  0  0  0
 23 25  1  0  0  0  0
 24 23  1  0  0  0  0
 27  1  1  0  0  0  0
 27 30  1  0  0  0  0
 28 27  1  0  0  0  0
 29 27  1  0  0  0  0
 31  1  1  0  0  0  0
 32 31  1  0  0  0  0
 33 31  1  0  0  0  0
 34 31  1  0  0  0  0
M  END
