6
 OpenBabel05122313113D

 33 33  0  0  1  0  0  0  0  0999 V2000
   -5.2218   -1.4114    0.9042 F   0  0  0  0  0  0  0  0  0  0  0  0
   -5.6391   -0.6242   -1.0850 F   0  0  0  0  0  0  0  0  0  0  0  0
   -5.7058    0.6990    0.6559 F   0  0  0  0  0  0  0  0  0  0  0  0
    1.0078    1.9778    0.1639 O   0  0  0  0  0  0  0  0  0  0  0  0
    0.6644    0.7722   -0.4584 C   0  0  2  0  0  3  0  0  0  0  0  0
    1.4602    0.2953   -1.5773 C   0  0  0  0  0  3  0  0  0  0  0  0
    2.8813    0.3290   -1.4695 C   0  0  0  0  0  3  0  0  0  0  0  0
    3.5077    0.7649   -0.2594 C   0  0  0  0  0  3  0  0  0  0  0  0
    4.9865    0.5867   -0.0446 C   0  0  0  0  0  0  0  0  0  0  0  0
    0.7794    3.1370   -0.6527 C   0  0  0  0  0  0  0  0  0  0  0  0
    1.0912    4.3681    0.1743 C   0  0  0  0  0  0  0  0  0  0  0  0
   -0.7944    0.4719   -0.3591 C   0  0  0  0  0  0  0  0  0  0  0  0
   -1.4714   -0.3859   -1.2556 C   0  0  0  0  0  0  0  0  0  0  0  0
   -2.8418   -0.6290   -1.1239 C   0  0  0  0  0  0  0  0  0  0  0  0
   -3.5712   -0.0256   -0.0853 C   0  0  0  0  0  0  0  0  0  0  0  0
   -2.9129    0.8302    0.8149 C   0  0  0  0  0  0  0  0  0  0  0  0
   -1.5447    1.0777    0.6753 C   0  0  0  0  0  0  0  0  0  0  0  0
   -5.0357   -0.3374    0.0948 C   0  0  0  0  0  0  0  0  0  0  0  0
    0.9999   -0.1699   -2.4614 H   0  0  0  0  0  0  0  0  0  0  0  0
    3.4785   -0.1406   -2.2696 H   0  0  0  0  0  0  0  0  0  0  0  0
    3.0358    1.5955    0.2836 H   0  0  0  0  0  0  0  0  0  0  0  0
    5.3985   -0.2808   -0.5971 H   0  0  0  0  0  0  0  0  0  0  0  0
    5.2234    0.4487    1.0290 H   0  0  0  0  0  0  0  0  0  0  0  0
    5.5360    1.4943   -0.3785 H   0  0  0  0  0  0  0  0  0  0  0  0
    1.4273    3.0842   -1.5586 H   0  0  0  0  0  0  0  0  0  0  0  0
   -0.2800    3.1458   -1.0004 H   0  0  0  0  0  0  0  0  0  0  0  0
    0.4359    4.4214    1.0662 H   0  0  0  0  0  0  0  0  0  0  0  0
    2.1441    4.3563    0.5206 H   0  0  0  0  0  0  0  0  0  0  0  0
    0.9347    5.2848   -0.4278 H   0  0  0  0  0  0  0  0  0  0  0  0
   -0.9276   -0.8799   -2.0728 H   0  0  0  0  0  0  0  0  0  0  0  0
   -3.3545   -1.2901   -1.8371 H   0  0  0  0  0  0  0  0  0  0  0  0
   -3.4809    1.3094    1.6253 H   0  0  0  0  0  0  0  0  0  0  0  0
   -1.0262    1.7470    1.3755 H   0  0  0  0  0  0  0  0  0  0  0  0
  2 18  1  0  0  0  0
  5  6  1  6  0  0  0
  5 12  1  0  0  0  0
  5  4  1  0  0  0  0
  6  7  1  0  0  0  0
  7  8  1  0  0  0  0
  8  9  1  0  0  0  0
  8 21  1  0  0  0  0
  9 23  1  0  0  0  0
 10  4  1  0  0  0  0
 10 11  1  0  0  0  0
 11 28  1  0  0  0  0
 11 27  1  0  0  0  0
 12 17  1  0  0  0  0
 13 14  1  0  0  0  0
 13 12  2  0  0  0  0
 14 15  2  0  0  0  0
 15 18  1  0  0  0  0
 15 16  1  0  0  0  0
 16 32  1  0  0  0  0
 17 16  2  0  0  0  0
 17 33  1  0  0  0  0
 18  3  1  0  0  0  0
 18  1  1  0  0  0  0
 19  6  1  0  0  0  0
 20  7  1  0  0  0  0
 22  9  1  0  0  0  0
 24  9  1  0  0  0  0
 25 10  1  0  0  0  0
 26 10  1  0  0  0  0
 29 11  1  0  0  0  0
 30 13  1  0  0  0  0
 31 14  1  0  0  0  0
M  END
