1
 OpenBabel05122313113D

 41 42  0  0  0  0  0  0  0  0999 V2000
   -0.4831    0.2083    0.0005 C   0  0  0  0  0  2  0  0  0  0  0  0
   -1.3195    1.3076    0.0005 C   0  0  0  0  0  0  0  0  0  0  0  0
   -1.1442    2.7567    0.0001 C   0  0  0  0  0  0  0  0  0  0  0  0
    0.1649    3.3017   -0.0009 C   0  0  0  0  0  0  0  0  0  0  0  0
    1.0187    2.6007   -0.0014 H   0  0  0  0  0  0  0  0  0  0  0  0
    0.3641    4.6874   -0.0012 C   0  0  0  0  0  0  0  0  0  0  0  0
    1.3871    5.0953   -0.0020 H   0  0  0  0  0  0  0  0  0  0  0  0
   -0.7399    5.5591   -0.0004 C   0  0  0  0  0  0  0  0  0  0  0  0
   -0.5838    6.6488   -0.0006 H   0  0  0  0  0  0  0  0  0  0  0  0
   -2.0428    5.0337    0.0006 C   0  0  0  0  0  0  0  0  0  0  0  0
   -2.9092    5.7129    0.0012 H   0  0  0  0  0  0  0  0  0  0  0  0
   -2.2445    3.6463    0.0009 C   0  0  0  0  0  0  0  0  0  0  0  0
   -3.2639    3.2329    0.0017 H   0  0  0  0  0  0  0  0  0  0  0  0
   -1.9713   -0.0410    0.0008 B   0  0  0  0  0  0  0  0  0  0  0  0
   -3.0842   -0.9390    0.0011 N   0  0  0  0  0  0  0  0  0  0  0  0
   -4.6617   -0.1047   -0.0007 Si  0  0  0  0  0  0  0  0  0  0  0  0
   -4.7696    0.9633   -1.5580 C   0  0  0  0  0  0  0  0  0  0  0  0
   -5.6906    1.5823   -1.5617 H   0  0  0  0  0  0  0  0  0  0  0  0
   -4.7848    0.3219   -2.4634 H   0  0  0  0  0  0  0  0  0  0  0  0
   -3.8960    1.6402   -1.6393 H   0  0  0  0  0  0  0  0  0  0  0  0
   -4.7732    0.9628    1.5568 C   0  0  0  0  0  0  0  0  0  0  0  0
   -4.7900    0.3212    2.4619 H   0  0  0  0  0  0  0  0  0  0  0  0
   -5.6942    1.5818    1.5588 H   0  0  0  0  0  0  0  0  0  0  0  0
   -3.8997    1.6398    1.6400 H   0  0  0  0  0  0  0  0  0  0  0  0
   -6.1294   -1.2951   -0.0029 C   0  0  0  0  0  0  0  0  0  0  0  0
   -6.1534   -1.9439    0.8947 H   0  0  0  0  0  0  0  0  0  0  0  0
   -6.1504   -1.9437   -0.9007 H   0  0  0  0  0  0  0  0  0  0  0  0
   -7.0607   -0.6907   -0.0044 H   0  0  0  0  0  0  0  0  0  0  0  0
   -2.5523   -2.6441    0.0019 Si  0  0  0  0  0  0  0  0  0  0  0  0
   -4.0033   -3.8543    0.0059 C   0  0  0  0  0  0  0  0  0  0  0  0
   -4.6434   -3.7478    0.9038 H   0  0  0  0  0  0  0  0  0  0  0  0
   -3.5916   -4.8852    0.0074 H   0  0  0  0  0  0  0  0  0  0  0  0
   -4.6459   -3.7513   -0.8906 H   0  0  0  0  0  0  0  0  0  0  0  0
   -1.4886   -2.9645   -1.5290 C   0  0  0  0  0  0  0  0  0  0  0  0
   -2.0213   -2.6893   -2.4622 H   0  0  0  0  0  0  0  0  0  0  0  0
   -1.1984   -4.0334   -1.5969 H   0  0  0  0  0  0  0  0  0  0  0  0
   -0.5622   -2.3600   -1.4526 H   0  0  0  0  0  0  0  0  0  0  0  0
   -1.4838   -2.9617    1.5301 C   0  0  0  0  0  0  0  0  0  0  0  0
   -0.5576   -2.3574    1.4499 H   0  0  0  0  0  0  0  0  0  0  0  0
   -1.1937   -4.0306    1.5990 H   0  0  0  0  0  0  0  0  0  0  0  0
   -2.0137   -2.6848    2.4644 H   0  0  0  0  0  0  0  0  0  0  0  0
  1 14  1  0  0  0  0
  2  1  1  0  0  0  0
  2 14  2  0  0  0  0
  3  2  1  0  0  0  0
  3 12  1  0  0  0  0
  4  3  2  0  0  0  0
  5  4  1  0  0  0  0
  6  4  1  0  0  0  0
  6  8  2  0  0  0  0
  7  6  1  0  0  0  0
  8 10  1  0  0  0  0
  9  8  1  0  0  0  0
 10 12  2  0  0  0  0
 10 11  1  0  0  0  0
 12 13  1  0  0  0  0
 14 15  1  0  0  0  0
 15 29  1  0  0  0  0
 16 15  1  0  0  0  0
 16 21  1  0  0  0  0
 17 16  1  0  0  0  0
 18 17  1  0  0  0  0
 19 17  1  0  0  0  0
 20 17  1  0  0  0  0
 21 23  1  0  0  0  0
 21 24  1  0  0  0  0
 21 22  1  0  0  0  0
 25 16  1  0  0  0  0
 25 26  1  0  0  0  0
 27 25  1  0  0  0  0
 28 25  1  0  0  0  0
 29 30  1  0  0  0  0
 29 38  1  0  0  0  0
 30 32  1  0  0  0  0
 30 31  1  0  0  0  0
 33 30  1  0  0  0  0
 34 37  1  0  0  0  0
 34 29  1  0  0  0  0
 35 34  1  0  0  0  0
 36 34  1  0  0  0  0
 38 40  1  0  0  0  0
 38 41  1  0  0  0  0
 39 38  1  0  0  0  0
M  END
