3
 OpenBabel05122313113D

 34 37  0  0  0  0  0  0  0  0999 V2000
   -1.4399    0.8820   -0.0739 N   0  0  0  0  0  0  0  0  0  0  0  0
   -1.5585   -1.3813   -0.6284 N   0  0  0  0  0  0  0  0  0  0  0  0
   -0.7833   -0.2923   -0.3408 C   0  0  0  0  0  2  0  0  0  0  0  0
   -2.8473    1.0155   -0.0009 C   0  0  0  0  0  0  0  0  0  0  0  0
   -3.4739    2.2072    0.3706 C   0  0  0  0  0  0  0  0  0  0  0  0
   -2.8757    3.0858    0.6411 H   0  0  0  0  0  0  0  0  0  0  0  0
   -4.8878    2.2711    0.3947 C   0  0  0  0  0  0  0  0  0  0  0  0
   -5.3681    3.2168    0.6877 H   0  0  0  0  0  0  0  0  0  0  0  0
   -5.6689    1.1746    0.0584 C   0  0  0  0  0  0  0  0  0  0  0  0
   -6.7669    1.2397    0.0757 H   0  0  0  0  0  0  0  0  0  0  0  0
   -5.0583   -0.0600   -0.3069 C   0  0  0  0  0  0  0  0  0  0  0  0
   -5.8027   -1.2279   -0.6460 C   0  0  0  0  0  0  0  0  0  0  0  0
   -6.9017   -1.1803   -0.6347 H   0  0  0  0  0  0  0  0  0  0  0  0
   -5.1470   -2.4035   -0.9760 C   0  0  0  0  0  0  0  0  0  0  0  0
   -5.7282   -3.3017   -1.2335 H   0  0  0  0  0  0  0  0  0  0  0  0
   -3.7322   -2.4864   -0.9820 C   0  0  0  0  0  0  0  0  0  0  0  0
   -3.2525   -3.4385   -1.2348 H   0  0  0  0  0  0  0  0  0  0  0  0
   -2.9710   -1.3595   -0.6594 C   0  0  0  0  0  0  0  0  0  0  0  0
   -3.6229   -0.1343   -0.3272 C   0  0  0  0  0  0  0  0  0  0  0  0
   -0.6365    2.0571    0.1919 C   0  0  0  0  0  0  0  0  0  0  0  0
   -0.0173    2.2171    1.4423 C   0  0  0  0  0  0  0  0  0  0  0  0
   -0.1186    1.4267    2.1994 H   0  0  0  0  0  0  0  0  0  0  0  0
    0.7464    3.3678    1.6874 C   0  0  0  0  0  0  0  0  0  0  0  0
    1.2461    3.4868    2.6603 H   0  0  0  0  0  0  0  0  0  0  0  0
    0.8796    4.3550    0.6968 C   0  0  0  0  0  0  0  0  0  0  0  0
    1.4853    5.2529    0.8912 H   0  0  0  0  0  0  0  0  0  0  0  0
    0.2276    4.2030   -0.5381 C   0  0  0  0  0  0  0  0  0  0  0  0
    0.3163    4.9810   -1.3110 H   0  0  0  0  0  0  0  0  0  0  0  0
   -0.5424    3.0577   -0.7901 C   0  0  0  0  0  0  0  0  0  0  0  0
   -1.0710    2.9305   -1.7461 H   0  0  0  0  0  0  0  0  0  0  0  0
   -0.9001   -2.6645   -0.8639 C   0  0  0  0  0  0  0  0  0  0  0  0
   -1.2377   -3.4055   -0.1125 H   0  0  0  0  0  0  0  0  0  0  0  0
    0.1918   -2.5082   -0.7486 H   0  0  0  0  0  0  0  0  0  0  0  0
   -1.1295   -3.0368   -1.8830 H   0  0  0  0  0  0  0  0  0  0  0  0
  1  4  1  0  0  0  0
  1 20  1  0  0  0  0
  2  3  1  0  0  0  0
  3  1  1  0  0  0  0
  4  5  1  0  0  0  0
  5  7  2  0  0  0  0
  5  6  1  0  0  0  0
  7  8  1  0  0  0  0
  9 10  1  0  0  0  0
  9  7  1  0  0  0  0
 11  9  2  0  0  0  0
 12 13  1  0  0  0  0
 12 11  1  0  0  0  0
 14 12  2  0  0  0  0
 15 14  1  0  0  0  0
 16 14  1  0  0  0  0
 16 18  2  0  0  0  0
 17 16  1  0  0  0  0
 18  2  1  0  0  0  0
 18 19  1  0  0  0  0
 19 11  1  0  0  0  0
 19  4  2  0  0  0  0
 20 21  1  0  0  0  0
 21 23  2  0  0  0  0
 21 22  1  0  0  0  0
 23 24  1  0  0  0  0
 25 26  1  0  0  0  0
 25 23  1  0  0  0  0
 27 25  2  0  0  0  0
 28 27  1  0  0  0  0
 29 27  1  0  0  0  0
 29 20  2  0  0  0  0
 30 29  1  0  0  0  0
 31 33  1  0  0  0  0
 31  2  1  0  0  0  0
 31 32  1  0  0  0  0
 34 31  1  0  0  0  0
M  END
