26
 OpenBabel05122313113D

 44 46  0  0  1  0  0  0  0  0999 V2000
   -1.6186    0.9586    1.5407 S   0  0  2  0  0  0  0  0  0  0  0  0
    1.0645   -2.6471    0.4167 O   0  0  0  0  0  0  0  0  0  0  0  0
    2.4794   -1.6769   -1.1944 O   0  0  0  0  0  0  0  0  0  0  0  0
   -2.2685    2.1242    2.2671 O   0  0  0  0  0  0  0  0  0  0  0  0
    1.8272   -3.8498    0.5862 C   0  0  0  0  0  0  0  0  0  0  0  0
    2.2962   -4.1384   -0.3836 H   0  0  0  0  0  0  0  0  0  0  0  0
    1.0858   -4.6284    0.8539 H   0  0  0  0  0  0  0  0  0  0  0  0
    2.9013   -3.6925    1.6571 C   0  0  0  0  0  0  0  0  0  0  0  0
    3.4845   -4.6336    1.7392 H   0  0  0  0  0  0  0  0  0  0  0  0
    2.4103   -3.5236    2.6403 H   0  0  0  0  0  0  0  0  0  0  0  0
    3.8045   -2.5038    1.3135 C   0  0  0  0  0  0  0  0  0  0  0  0
    4.3751   -2.7237    0.3864 H   0  0  0  0  0  0  0  0  0  0  0  0
    4.5478   -2.3225    2.1165 H   0  0  0  0  0  0  0  0  0  0  0  0
    2.9562   -1.2479    1.0909 C   0  0  0  0  0  0  0  0  0  0  0  0
    2.4695   -0.9370    2.0384 H   0  0  0  0  0  0  0  0  0  0  0  0
    3.5783   -0.4006    0.7456 H   0  0  0  0  0  0  0  0  0  0  0  0
    1.8405   -1.4917    0.0644 C   0  0  2  0  0  0  0  0  0  0  0  0
    0.8013   -0.3849    0.0144 C   0  0  0  0  0  3  0  0  0  0  0  0
    0.2843    0.0325   -1.2594 C   0  0  2  0  0  3  0  0  0  0  0  0
    0.7564   -0.6079   -2.5501 C   0  0  0  0  0  0  0  0  0  0  0  0
   -0.1327   -0.8559   -3.1675 H   0  0  0  0  0  0  0  0  0  0  0  0
    1.3609    0.1124   -3.1374 H   0  0  0  0  0  0  0  0  0  0  0  0
    1.5529   -1.8809   -2.2588 C   0  0  0  0  0  0  0  0  0  0  0  0
    0.8597   -2.7105   -1.9965 H   0  0  0  0  0  0  0  0  0  0  0  0
    2.1511   -2.1899   -3.1372 H   0  0  0  0  0  0  0  0  0  0  0  0
   -0.5930    1.1535   -1.2502 C   0  0  0  0  0  3  0  0  0  0  0  0
   -0.9013    1.7683    0.0148 C   0  0  0  0  0  3  0  0  0  0  0  0
   -2.9651    0.0512    0.6859 C   0  0  0  0  0  0  0  0  0  0  0  0
   -4.2321    0.6420    0.6902 C   0  0  0  0  0  0  0  0  0  0  0  0
   -4.3523    1.6180    1.1879 H   0  0  0  0  0  0  0  0  0  0  0  0
   -5.2984   -0.0293    0.0745 C   0  0  0  0  0  0  0  0  0  0  0  0
   -6.2990    0.4320    0.0663 H   0  0  0  0  0  0  0  0  0  0  0  0
   -5.1155   -1.2900   -0.5300 C   0  0  0  0  0  0  0  0  0  0  0  0
   -3.8263   -1.8676   -0.4974 C   0  0  0  0  0  0  0  0  0  0  0  0
   -3.6672   -2.8585   -0.9527 H   0  0  0  0  0  0  0  0  0  0  0  0
   -2.7479   -1.2116    0.1108 C   0  0  0  0  0  0  0  0  0  0  0  0
   -1.7537   -1.6858    0.1384 H   0  0  0  0  0  0  0  0  0  0  0  0
   -6.2672   -2.0246   -1.1684 C   0  0  0  0  0  0  0  0  0  0  0  0
   -7.1466   -1.3661   -1.3055 H   0  0  0  0  0  0  0  0  0  0  0  0
   -6.5889   -2.8840   -0.5419 H   0  0  0  0  0  0  0  0  0  0  0  0
   -5.9876   -2.4375   -2.1590 H   0  0  0  0  0  0  0  0  0  0  0  0
    0.1405   -0.4202    0.8948 H   0  0  0  0  0  0  0  0  0  0  0  0
   -0.9343    1.5899   -2.2036 H   0  0  0  0  0  0  0  0  0  0  0  0
   -1.4245    2.7421    0.0011 H   0  0  0  0  0  0  0  0  0  0  0  0
  1  4  2  1  0  0  0
  2  5  1  0  0  0  0
  5  7  1  0  0  0  0
  5  8  1  0  0  0  0
  6  5  1  0  0  0  0
  8  9  1  0  0  0  0
  8 10  1  0  0  0  0
 11  8  1  0  0  0  0
 11 13  1  0  0  0  0
 12 11  1  0  0  0  0
 14 11  1  0  0  0  0
 14 15  1  0  0  0  0
 16 14  1  0  0  0  0
 17  3  1  6  0  0  0
 17  2  1  0  0  0  0
 17 14  1  0  0  0  0
 18 17  1  0  0  0  0
 18 42  1  0  0  0  0
 19 26  1  6  0  0  0
 19 18  1  0  0  0  0
 20 23  1  0  0  0  0
 20 19  1  0  0  0  0
 21 20  1  0  0  0  0
 22 20  1  0  0  0  0
 23 24  1  0  0  0  0
 23  3  1  0  0  0  0
 25 23  1  0  0  0  0
 26 27  1  0  0  0  0
 27  1  1  0  0  0  0
 28 29  1  0  0  0  0
 28  1  1  0  0  0  0
 29 30  1  0  0  0  0
 31 29  2  0  0  0  0
 32 31  1  0  0  0  0
 33 34  2  0  0  0  0
 33 31  1  0  0  0  0
 34 36  1  0  0  0  0
 35 34  1  0  0  0  0
 36 37  1  0  0  0  0
 36 28  2  0  0  0  0
 38 40  1  0  0  0  0
 38 33  1  0  0  0  0
 39 38  1  0  0  0  0
 41 38  1  0  0  0  0
 43 26  1  0  0  0  0
 44 27  1  0  0  0  0
M  END
