1
 OpenBabel05122313113D

 25 26  0  0  0  0  0  0  0  0999 V2000
   -0.5243   -0.4757   -0.1124 C   0  0  0  0  0  3  0  0  0  0  0  0
   -1.7938   -0.3729   -0.0742 C   0  0  0  0  0  0  0  0  0  0  0  0
   -3.1415   -0.1575    0.0143 C   0  0  0  0  0  3  0  0  0  0  0  0
   -4.0616   -1.2993    0.1916 C   0  0  0  0  0  0  0  0  0  0  0  0
   -5.2397   -1.1817    0.9719 C   0  0  0  0  0  0  0  0  0  0  0  0
   -5.4837   -0.2211    1.4477 H   0  0  0  0  0  0  0  0  0  0  0  0
   -6.0679   -2.2915    1.1806 C   0  0  0  0  0  0  0  0  0  0  0  0
   -6.9697   -2.1886    1.8025 H   0  0  0  0  0  0  0  0  0  0  0  0
   -5.7475   -3.5320    0.6057 C   0  0  0  0  0  0  0  0  0  0  0  0
   -6.4057   -4.3994    0.7633 H   0  0  0  0  0  0  0  0  0  0  0  0
   -4.5805   -3.6633   -0.1684 C   0  0  0  0  0  0  0  0  0  0  0  0
   -4.3283   -4.6326   -0.6240 H   0  0  0  0  0  0  0  0  0  0  0  0
   -3.7416   -2.5628   -0.3636 C   0  0  0  0  0  0  0  0  0  0  0  0
   -2.8273   -2.6552   -0.9664 H   0  0  0  0  0  0  0  0  0  0  0  0
   -3.6564    1.2273   -0.0620 C   0  0  0  0  0  0  0  0  0  0  0  0
   -2.8203    2.3202    0.2800 C   0  0  0  0  0  0  0  0  0  0  0  0
   -1.8002    2.1109    0.6335 H   0  0  0  0  0  0  0  0  0  0  0  0
   -3.2808    3.6346    0.1743 C   0  0  0  0  0  0  0  0  0  0  0  0
   -2.6235    4.4705    0.4585 H   0  0  0  0  0  0  0  0  0  0  0  0
   -4.5819    3.8932   -0.2941 C   0  0  0  0  0  0  0  0  0  0  0  0
   -4.9435    4.9289   -0.3801 H   0  0  0  0  0  0  0  0  0  0  0  0
   -5.4147    2.8237   -0.6592 C   0  0  0  0  0  0  0  0  0  0  0  0
   -6.4256    3.0196   -1.0467 H   0  0  0  0  0  0  0  0  0  0  0  0
   -4.9615    1.5035   -0.5425 C   0  0  0  0  0  0  0  0  0  0  0  0
   -5.6107    0.6755   -0.8602 H   0  0  0  0  0  0  0  0  0  0  0  0
  1  2  3  0  0  0  0
  2  3  1  0  0  0  0
  3  4  1  0  0  0  0
  4  5  1  0  0  0  0
  5  7  2  0  0  0  0
  5  6  1  0  0  0  0
  7  8  1  0  0  0  0
  9 10  1  0  0  0  0
  9  7  1  0  0  0  0
 11  9  2  0  0  0  0
 12 11  1  0  0  0  0
 13 11  1  0  0  0  0
 13  4  2  0  0  0  0
 14 13  1  0  0  0  0
 15  3  1  0  0  0  0
 15 16  1  0  0  0  0
 16 17  1  0  0  0  0
 18 16  2  0  0  0  0
 18 19  1  0  0  0  0
 20 18  1  0  0  0  0
 21 20  1  0  0  0  0
 22 24  1  0  0  0  0
 22 20  2  0  0  0  0
 23 22  1  0  0  0  0
 24 15  2  0  0  0  0
 25 24  1  0  0  0  0
M  END
