1
 OpenBabel05122313113D

  5  4  0  0  0  0  0  0  0  0999 V2000
    0.4928   -2.4187   -1.0546 C   0  0  0  0  0  3  0  0  0  0  0  0
    0.5433   -3.1434   -0.2184 H   0  0  0  0  0  0  0  0  0  0  0  0
   -0.4082   -2.6682   -1.6501 H   0  0  0  0  0  0  0  0  0  0  0  0
    1.6776   -2.5662   -1.8623 C   0  0  0  0  0  0  0  0  0  0  0  0
    2.6746   -2.6368   -2.4857 N   0  0  0  0  0  0  0  0  0  0  0  0
  1  2  1  0  0  0  0
  3  1  1  0  0  0  0
  4  1  1  0  0  0  0
  5  4  3  0  0  0  0
M  END
