1
 OpenBabel05122313113D

 13 13  0  0  0  0  0  0  0  0999 V2000
   -0.2516    1.4754    0.9443 C   0  0  0  0  0  2  0  0  0  0  0  0
   -1.0284    1.5152    1.7301 H   0  0  0  0  0  0  0  0  0  0  0  0
    0.6624    2.6043    1.0485 C   0  0  0  0  0  0  0  0  0  0  0  0
    1.8605    2.7569    0.2952 C   0  0  0  0  0  0  0  0  0  0  0  0
    2.1721    1.9739   -0.4024 H   0  0  0  0  0  0  0  0  0  0  0  0
    2.6739    3.8786    0.4757 C   0  0  0  0  0  0  0  0  0  0  0  0
    3.6047    3.9689   -0.1034 H   0  0  0  0  0  0  0  0  0  0  0  0
    2.3138    4.8777    1.3977 C   0  0  0  0  0  0  0  0  0  0  0  0
    2.9578    5.7597    1.5326 H   0  0  0  0  0  0  0  0  0  0  0  0
    1.1371    4.7455    2.1573 C   0  0  0  0  0  0  0  0  0  0  0  0
    0.8590    5.5218    2.8852 H   0  0  0  0  0  0  0  0  0  0  0  0
    0.3268    3.6204    1.9919 C   0  0  0  0  0  0  0  0  0  0  0  0
   -0.5891    3.5098    2.5939 H   0  0  0  0  0  0  0  0  0  0  0  0
  1  3  1  0  0  0  0
  1  2  1  0  0  0  0
  3 12  1  0  0  0  0
  4  6  1  0  0  0  0
  4  3  2  0  0  0  0
  5  4  1  0  0  0  0
  6  8  2  0  0  0  0
  7  6  1  0  0  0  0
  8  9  1  0  0  0  0
  8 10  1  0  0  0  0
 10 11  1  0  0  0  0
 12 10  2  0  0  0  0
 12 13  1  0  0  0  0
M  END
