5
 OpenBabel05122313113D

 10  9  0  0  0  0  0  0  0  0999 V2000
    2.6005    3.0924    0.7964 N   0  0  0  0  0  0  0  0  0  0  0  0
    1.7767    2.8443   -0.0116 C   0  0  0  0  0  0  0  0  0  0  0  0
    0.8066    2.4698   -0.9928 C   0  0  0  0  0  3  0  0  0  0  0  0
    1.1946    2.4069   -2.0273 H   0  0  0  0  0  0  0  0  0  0  0  0
   -0.6207    2.6087   -0.7810 C   0  0  0  0  0  3  0  0  0  0  0  0
   -0.9242    3.1424    0.1407 H   0  0  0  0  0  0  0  0  0  0  0  0
   -1.5470    2.8097   -1.9605 C   0  0  0  0  0  0  0  0  0  0  0  0
   -1.5889    3.8760   -2.2805 H   0  0  0  0  0  0  0  0  0  0  0  0
   -2.5850    2.4992   -1.7210 H   0  0  0  0  0  0  0  0  0  0  0  0
   -1.2223    2.2152   -2.8394 H   0  0  0  0  0  0  0  0  0  0  0  0
  2  1  3  0  0  0  0
  3  5  1  0  0  0  0
  3  2  1  0  0  0  0
  4  3  1  0  0  0  0
  5  6  1  0  0  0  0
  7  9  1  0  0  0  0
  7  5  1  0  0  0  0
  8  7  1  0  0  0  0
 10  7  1  0  0  0  0
M  END
