8
 OpenBabel05122313113D

 37 38  0  0  1  0  0  0  0  0999 V2000
    2.1266    1.8415   -0.6014 O   0  0  0  0  0  0  0  0  0  0  0  0
    2.0818    1.3172    1.5972 O   0  0  0  0  0  0  0  0  0  0  0  0
    2.0893    0.9612    0.4321 C   0  0  0  0  0  0  0  0  0  0  0  0
    2.0360   -0.4954   -0.0403 C   0  0  0  0  0  0  0  0  0  0  0  0
    0.5303   -0.9462   -0.1946 C   0  0  2  0  0  0  0  0  0  0  0  0
   -0.2743   -0.2930   -1.2978 C   0  0  0  0  0  3  0  0  0  0  0  0
   -0.7863    1.0085   -1.3213 C   0  0  0  0  0  3  0  0  0  0  0  0
   -1.1469    1.8388   -0.2080 C   0  0  0  0  0  3  0  0  0  0  0  0
   -1.1649    1.4732    1.1574 C   0  0  0  0  0  0  0  0  0  0  0  0
   -0.8296    0.1966    1.7168 C   0  0  0  0  0  0  0  0  0  0  0  0
   -0.3137   -0.9257    1.0611 C   0  0  0  0  0  3  0  0  0  0  0  0
    2.7547   -0.6945   -1.3939 C   0  0  0  0  0  0  0  0  0  0  0  0
    4.2690   -0.4710   -1.2991 C   0  0  0  0  0  0  0  0  0  0  0  0
    4.9035   -1.3575   -0.2209 C   0  0  0  0  0  0  0  0  0  0  0  0
    4.2164   -1.1550    1.1344 C   0  0  0  0  0  0  0  0  0  0  0  0
    2.7017   -1.3762    1.0423 C   0  0  0  0  0  0  0  0  0  0  0  0
    2.1264    3.2233   -0.2270 C   0  0  0  0  0  0  0  0  0  0  0  0
    0.6130   -2.0150   -0.4810 H   0  0  0  0  0  0  0  0  0  0  0  0
   -0.2806   -0.8105   -2.2693 H   0  0  0  0  0  0  0  0  0  0  0  0
   -1.1044    1.3932   -2.3038 H   0  0  0  0  0  0  0  0  0  0  0  0
   -1.5878    2.8167   -0.4548 H   0  0  0  0  0  0  0  0  0  0  0  0
   -1.6100    2.2033    1.8501 H   0  0  0  0  0  0  0  0  0  0  0  0
   -1.1729    0.0453    2.7526 H   0  0  0  0  0  0  0  0  0  0  0  0
   -0.3434   -1.8581    1.6452 H   0  0  0  0  0  0  0  0  0  0  0  0
    2.3102   -0.0275   -2.1578 H   0  0  0  0  0  0  0  0  0  0  0  0
    2.5601   -1.7399   -1.7233 H   0  0  0  0  0  0  0  0  0  0  0  0
    4.4656    0.5985   -1.0662 H   0  0  0  0  0  0  0  0  0  0  0  0
    4.7367   -0.6627   -2.2874 H   0  0  0  0  0  0  0  0  0  0  0  0
    4.8089   -2.4248   -0.5245 H   0  0  0  0  0  0  0  0  0  0  0  0
    5.9914   -1.1521   -0.1400 H   0  0  0  0  0  0  0  0  0  0  0  0
    4.4087   -0.1236    1.5020 H   0  0  0  0  0  0  0  0  0  0  0  0
    4.6463   -1.8384    1.8960 H   0  0  0  0  0  0  0  0  0  0  0  0
    2.2255   -1.1710    2.0209 H   0  0  0  0  0  0  0  0  0  0  0  0
    2.4965   -2.4395    0.7869 H   0  0  0  0  0  0  0  0  0  0  0  0
    2.2266    3.7963   -1.1659 H   0  0  0  0  0  0  0  0  0  0  0  0
    1.1798    3.4861    0.2875 H   0  0  0  0  0  0  0  0  0  0  0  0
    2.9674    3.4456    0.4597 H   0  0  0  0  0  0  0  0  0  0  0  0
  1 17  1  0  0  0  0
  1  3  1  0  0  0  0
  3  2  2  0  0  0  0
  4  3  1  0  0  0  0
  4 16  1  0  0  0  0
  5 18  1  6  0  0  0
  5  4  1  0  0  0  0
  5 11  1  0  0  0  0
  6  5  1  0  0  0  0
  7  6  1  0  0  0  0
  7  8  1  0  0  0  0
  8  9  1  0  0  0  0
  9 10  2  0  0  0  0
  9 22  1  0  0  0  0
 10 23  1  0  0  0  0
 11 24  1  0  0  0  0
 11 10  1  0  0  0  0
 12 13  1  0  0  0  0
 12  4  1  0  0  0  0
 13 27  1  0  0  0  0
 13 14  1  0  0  0  0
 14 30  1  0  0  0  0
 14 15  1  0  0  0  0
 15 31  1  0  0  0  0
 15 32  1  0  0  0  0
 16 15  1  0  0  0  0
 16 33  1  0  0  0  0
 17 36  1  0  0  0  0
 17 37  1  0  0  0  0
 19  6  1  0  0  0  0
 20  7  1  0  0  0  0
 21  8  1  0  0  0  0
 25 12  1  0  0  0  0
 26 12  1  0  0  0  0
 28 13  1  0  0  0  0
 29 14  1  0  0  0  0
 34 16  1  0  0  0  0
 35 17  1  0  0  0  0
M  END
