1
 OpenBabel05122313113D

 25 26  0  0  0  0  0  0  0  0999 V2000
    0.6076   -2.1530   -0.5687 C   0  0  0  0  0  2  0  0  0  0  0  0
    1.8308   -1.6157   -0.8507 N   0  0  0  0  0  0  0  0  0  0  0  0
    2.7933   -2.6023   -0.9870 C   0  0  0  0  0  0  0  0  0  0  0  0
    2.1529   -3.8002   -0.7980 C   0  0  0  0  0  0  0  0  0  0  0  0
    0.8220   -3.5020   -0.5441 N   0  0  0  0  0  0  0  0  0  0  0  0
   -0.2046   -4.5037   -0.2919 C   0  0  0  0  0  0  0  0  0  0  0  0
   -0.2880   -5.1955   -1.1526 H   0  0  0  0  0  0  0  0  0  0  0  0
   -1.1707   -3.9862   -0.1506 H   0  0  0  0  0  0  0  0  0  0  0  0
    0.0363   -5.0842    0.6200 H   0  0  0  0  0  0  0  0  0  0  0  0
    2.5311   -4.8267   -0.8282 H   0  0  0  0  0  0  0  0  0  0  0  0
    3.8424   -2.3743   -1.1981 H   0  0  0  0  0  0  0  0  0  0  0  0
    2.1086   -0.1776   -0.9428 C   0  0  0  0  0  0  0  0  0  0  0  0
    2.9077    0.3491    0.2286 C   0  0  0  0  0  0  0  0  0  0  0  0
    2.4107    0.2225    1.5408 C   0  0  0  0  0  0  0  0  0  0  0  0
    3.1252    0.7520    2.6235 C   0  0  0  0  0  0  0  0  0  0  0  0
    4.3440    1.4179    2.4056 C   0  0  0  0  0  0  0  0  0  0  0  0
    4.8469    1.5440    1.1022 C   0  0  0  0  0  0  0  0  0  0  0  0
    4.1321    1.0077    0.0188 C   0  0  0  0  0  0  0  0  0  0  0  0
    4.5262    1.1124   -1.0047 H   0  0  0  0  0  0  0  0  0  0  0  0
    5.8032    2.0589    0.9264 H   0  0  0  0  0  0  0  0  0  0  0  0
    4.9041    1.8349    3.2558 H   0  0  0  0  0  0  0  0  0  0  0  0
    2.7301    0.6485    3.6453 H   0  0  0  0  0  0  0  0  0  0  0  0
    1.4507   -0.2914    1.7117 H   0  0  0  0  0  0  0  0  0  0  0  0
    1.1244    0.3299   -1.0057 H   0  0  0  0  0  0  0  0  0  0  0  0
    2.6384    0.0147   -1.8961 H   0  0  0  0  0  0  0  0  0  0  0  0
  1  5  1  0  0  0  0
  2  1  1  0  0  0  0
  3  2  1  0  0  0  0
  3  4  2  0  0  0  0
  4  5  1  0  0  0  0
  5  6  1  0  0  0  0
  6  8  1  0  0  0  0
  6  9  1  0  0  0  0
  7  6  1  0  0  0  0
 10  4  1  0  0  0  0
 11  3  1  0  0  0  0
 12  2  1  0  0  0  0
 12 13  1  0  0  0  0
 13 14  1  0  0  0  0
 14 23  1  0  0  0  0
 14 15  2  0  0  0  0
 15 22  1  0  0  0  0
 16 15  1  0  0  0  0
 16 21  1  0  0  0  0
 17 16  2  0  0  0  0
 18 13  2  0  0  0  0
 18 17  1  0  0  0  0
 19 18  1  0  0  0  0
 20 17  1  0  0  0  0
 24 12  1  0  0  0  0
 25 12  1  0  0  0  0
M  END
