2
 OpenBabel05122313113D

 22 23  0  0  0  0  0  0  0  0999 V2000
    2.2169   -1.1900   -1.9347 C   0  0  0  0  0  0  0  0  0  0  0  0
    1.5540    0.0758   -2.0361 C   0  0  0  0  0  3  0  0  0  0  0  0
    2.1634    0.9960   -1.0701 C   0  0  0  0  0  0  0  0  0  0  0  0
    1.9480    2.3602   -0.7885 C   0  0  0  0  0  0  0  0  0  0  0  0
    2.6460    2.9406    0.2818 C   0  0  0  0  0  0  0  0  0  0  0  0
    3.5258    2.1765    1.0795 C   0  0  0  0  0  0  0  0  0  0  0  0
    3.7446    0.8140    0.8177 C   0  0  0  0  0  0  0  0  0  0  0  0
    3.0846    0.2223   -0.2752 C   0  0  0  0  0  0  0  0  0  0  0  0
    3.0442   -1.1656   -0.7688 C   0  0  0  0  0  0  0  0  0  0  0  0
    3.8833   -2.2874   -0.2396 C   0  0  0  0  0  0  0  0  0  0  0  0
    5.3580   -2.1689   -0.6540 C   0  0  0  0  0  0  0  0  0  0  0  0
    2.0544   -2.0624   -2.5804 H   0  0  0  0  0  0  0  0  0  0  0  0
    0.8370    0.3714   -2.8120 H   0  0  0  0  0  0  0  0  0  0  0  0
    1.2432    2.9496   -1.3930 H   0  0  0  0  0  0  0  0  0  0  0  0
    2.4995    4.0075    0.5094 H   0  0  0  0  0  0  0  0  0  0  0  0
    4.0493    2.6575    1.9196 H   0  0  0  0  0  0  0  0  0  0  0  0
    4.4105    0.2176    1.4585 H   0  0  0  0  0  0  0  0  0  0  0  0
    3.4595   -3.2502   -0.5911 H   0  0  0  0  0  0  0  0  0  0  0  0
    3.7837   -2.3044    0.8661 H   0  0  0  0  0  0  0  0  0  0  0  0
    5.4705   -2.1954   -1.7569 H   0  0  0  0  0  0  0  0  0  0  0  0
    5.9548   -3.0014   -0.2300 H   0  0  0  0  0  0  0  0  0  0  0  0
    5.8032   -1.2173   -0.2997 H   0  0  0  0  0  0  0  0  0  0  0  0
  1  9  2  0  0  0  0
  2  1  1  0  0  0  0
  2  3  1  0  0  0  0
  3  4  2  0  0  0  0
  3  8  1  0  0  0  0
  4  5  1  0  0  0  0
  5 15  1  0  0  0  0
  5  6  2  0  0  0  0
  6 16  1  0  0  0  0
  7  6  1  0  0  0  0
  7 17  1  0  0  0  0
  8  7  2  0  0  0  0
  9  8  1  0  0  0  0
  9 10  1  0  0  0  0
 10 19  1  0  0  0  0
 11 22  1  0  0  0  0
 11 10  1  0  0  0  0
 11 21  1  0  0  0  0
 12  1  1  0  0  0  0
 13  2  1  0  0  0  0
 14  4  1  0  0  0  0
 18 10  1  0  0  0  0
 20 11  1  0  0  0  0
M  END
