5
 OpenBabel05122313113D

 49 55  0  0  1  0  0  0  0  0999 V2000
    1.2353   -0.3244   -2.0930 C   0  0  0  0  0  0  0  0  0  0  0  0
    0.6487   -1.0918   -2.6058 H   0  0  0  0  0  0  0  0  0  0  0  0
    2.5318   -0.0190   -2.5747 C   0  0  0  0  0  0  0  0  0  0  0  0
    2.9348   -0.5824   -3.4275 H   0  0  0  0  0  0  0  0  0  0  0  0
    3.3378    0.9689   -1.9298 C   0  0  0  0  0  3  0  0  0  0  0  0
    4.3608    1.1644   -2.2781 H   0  0  0  0  0  0  0  0  0  0  0  0
    1.5069    1.3704   -0.3382 C   0  0  0  0  0  0  0  0  0  0  0  0
    2.8164    1.6669   -0.8146 C   0  0  0  0  0  0  0  0  0  0  0  0
    3.4261    2.4188   -0.2940 H   0  0  0  0  0  0  0  0  0  0  0  0
   -0.8037    4.0239   -0.1481 C   0  0  0  0  0  0  0  0  0  0  0  0
   -0.1942    4.8121    0.3207 H   0  0  0  0  0  0  0  0  0  0  0  0
   -1.9177    4.3572   -0.9406 C   0  0  0  0  0  0  0  0  0  0  0  0
   -2.1945    5.4131   -1.0805 H   0  0  0  0  0  0  0  0  0  0  0  0
   -2.6578    3.3467   -1.5708 C   0  0  0  0  0  0  0  0  0  0  0  0
   -3.5132    3.6091   -2.2113 H   0  0  0  0  0  0  0  0  0  0  0  0
   -2.3156    1.9928   -1.3932 C   0  0  0  0  0  0  0  0  0  0  0  0
   -2.8986    1.2070   -1.8931 H   0  0  0  0  0  0  0  0  0  0  0  0
   -1.2353    1.6555   -0.5692 C   0  0  0  0  0  0  0  0  0  0  0  0
   -0.6930    0.2236   -0.2986 C   0  0  1  0  0  0  0  0  0  0  0  0
    0.7199    0.3407   -0.9367 C   0  0  1  0  0  3  0  0  0  0  0  0
   -0.4614    2.6793    0.0241 C   0  0  0  0  0  0  0  0  0  0  0  0
    0.7772    2.1578    0.7466 C   0  0  1  0  0  0  0  0  0  0  0  0
    1.4023    2.9637    1.1715 H   0  0  0  0  0  0  0  0  0  0  0  0
    0.3148    1.1548    1.7814 C   0  0  0  0  0  0  0  0  0  0  0  0
   -0.4557    0.1125    1.2310 C   0  0  0  0  0  0  0  0  0  0  0  0
   -0.8903   -0.9352    2.0526 C   0  0  0  0  0  0  0  0  0  0  0  0
   -1.4644   -1.7712    1.6318 H   0  0  0  0  0  0  0  0  0  0  0  0
   -0.5704   -0.9191    3.4217 C   0  0  0  0  0  0  0  0  0  0  0  0
   -0.9111   -1.7439    4.0653 H   0  0  0  0  0  0  0  0  0  0  0  0
    0.1836    0.1300    3.9673 C   0  0  0  0  0  0  0  0  0  0  0  0
    0.4341    0.1309    5.0386 H   0  0  0  0  0  0  0  0  0  0  0  0
    0.6362    1.1735    3.1421 C   0  0  0  0  0  0  0  0  0  0  0  0
    1.2540    1.9866    3.5524 H   0  0  0  0  0  0  0  0  0  0  0  0
   -1.6219   -0.8831   -0.7444 C   0  0  0  0  0  0  0  0  0  0  0  0
   -1.3445   -2.0464   -1.4056 C   0  0  0  0  0  0  0  0  0  0  0  0
   -0.3623   -2.3859   -1.7483 H   0  0  0  0  0  0  0  0  0  0  0  0
   -3.6272   -2.1241   -0.8182 C   0  0  0  0  0  0  0  0  0  0  0  0
   -2.5653   -2.9142   -1.5341 C   0  0  0  0  0  0  0  0  0  0  0  0
   -2.8224   -3.1238   -2.5974 H   0  0  0  0  0  0  0  0  0  0  0  0
   -2.4036   -3.9110   -1.0642 H   0  0  0  0  0  0  0  0  0  0  0  0
   -4.9678   -2.4313   -0.5686 C   0  0  0  0  0  0  0  0  0  0  0  0
   -5.4122   -3.3616   -0.9557 H   0  0  0  0  0  0  0  0  0  0  0  0
   -5.7366   -1.5406    0.2021 C   0  0  0  0  0  0  0  0  0  0  0  0
   -6.7925   -1.7692    0.4121 H   0  0  0  0  0  0  0  0  0  0  0  0
   -5.1581   -0.3685    0.7226 C   0  0  0  0  0  0  0  0  0  0  0  0
   -5.7648    0.3087    1.3428 H   0  0  0  0  0  0  0  0  0  0  0  0
   -3.0479   -0.9243   -0.3264 C   0  0  0  0  0  0  0  0  0  0  0  0
   -3.8149   -0.0501    0.4673 C   0  0  0  0  0  0  0  0  0  0  0  0
   -3.3734    0.8620    0.8909 H   0  0  0  0  0  0  0  0  0  0  0  0
  2  1  1  0  0  0  0
  3  1  2  0  0  0  0
  3  5  1  0  0  0  0
  4  3  1  0  0  0  0
  5  8  1  0  0  0  0
  6  5  1  0  0  0  0
  7 22  1  0  0  0  0
  8  7  2  0  0  0  0
  8  9  1  0  0  0  0
 10 21  1  0  0  0  0
 10 11  1  0  0  0  0
 12 10  2  0  0  0  0
 13 12  1  0  0  0  0
 14 16  2  0  0  0  0
 14 12  1  0  0  0  0
 15 14  1  0  0  0  0
 16 18  1  0  0  0  0
 17 16  1  0  0  0  0
 18 19  1  0  0  0  0
 18 21  2  0  0  0  0
 19 34  1  6  0  0  0
 19 25  1  0  0  0  0
 20  1  1  6  0  0  0
 20  7  1  0  0  0  0
 20 19  1  0  0  0  0
 21 22  1  0  0  0  0
 22 23  1  1  0  0  0
 22 24  1  0  0  0  0
 24 32  1  0  0  0  0
 25 24  2  0  0  0  0
 25 26  1  0  0  0  0
 26 28  2  0  0  0  0
 27 26  1  0  0  0  0
 28 30  1  0  0  0  0
 28 29  1  0  0  0  0
 30 31  1  0  0  0  0
 32 33  1  0  0  0  0
 32 30  2  0  0  0  0
 34 47  1  0  0  0  0
 35 34  2  0  0  0  0
 36 35  1  0  0  0  0
 37 41  2  0  0  0  0
 37 47  1  0  0  0  0
 38 35  1  0  0  0  0
 38 40  1  0  0  0  0
 38 37  1  0  0  0  0
 39 38  1  0  0  0  0
 41 43  1  0  0  0  0
 42 41  1  0  0  0  0
 43 44  1  0  0  0  0
 43 45  2  0  0  0  0
 45 46  1  0  0  0  0
 47 48  2  0  0  0  0
 48 45  1  0  0  0  0
 48 49  1  0  0  0  0
M  END
