4
 OpenBabel05122313113D

 24 25  0  0  0  0  0  0  0  0999 V2000
    3.4470    0.5864   -0.9580 S   0  0  0  0  0  0  0  0  0  0  0  0
    7.1038   -0.5320    1.2451 S   0  0  0  0  0  0  0  0  0  0  0  0
    0.9662    0.5466   -2.0771 O   0  0  0  0  0  0  0  0  0  0  0  0
    0.8822   -0.4687   -1.2036 C   0  0  0  0  0  2  0  0  0  0  0  0
    2.2087   -0.6426   -0.6434 C   0  0  0  0  0  0  0  0  0  0  0  0
    2.7428   -1.6604    0.1588 C   0  0  0  0  0  0  0  0  0  0  0  0
    2.1634   -2.5412    0.4553 H   0  0  0  0  0  0  0  0  0  0  0  0
    4.0900   -1.4570    0.5142 C   0  0  0  0  0  0  0  0  0  0  0  0
    4.6718   -2.1559    1.1312 H   0  0  0  0  0  0  0  0  0  0  0  0
    4.6285   -0.2695   -0.0025 C   0  0  0  0  0  0  0  0  0  0  0  0
   -0.1620    1.0733   -2.7938 C   0  0  0  0  0  0  0  0  0  0  0  0
   -1.0642    0.9872   -2.1556 H   0  0  0  0  0  0  0  0  0  0  0  0
   -0.3201    0.4405   -3.6915 H   0  0  0  0  0  0  0  0  0  0  0  0
    0.1476    2.5095   -3.1621 C   0  0  0  0  0  0  0  0  0  0  0  0
   -0.6960    2.9350   -3.7407 H   0  0  0  0  0  0  0  0  0  0  0  0
    0.2905    3.1252   -2.2532 H   0  0  0  0  0  0  0  0  0  0  0  0
    1.0628    2.5732   -3.7833 H   0  0  0  0  0  0  0  0  0  0  0  0
    5.9599    0.2614    0.1770 C   0  0  0  0  0  0  0  0  0  0  0  0
    6.5420    1.3924   -0.3983 C   0  0  0  0  0  0  0  0  0  0  0  0
    6.0033    2.0363   -1.1076 H   0  0  0  0  0  0  0  0  0  0  0  0
    7.8842    1.6066    0.0179 C   0  0  0  0  0  0  0  0  0  0  0  0
    8.5106    2.4405   -0.3265 H   0  0  0  0  0  0  0  0  0  0  0  0
    8.3262    0.6423    0.9077 C   0  0  0  0  0  0  0  0  0  0  0  0
    9.3093    0.5558    1.3863 H   0  0  0  0  0  0  0  0  0  0  0  0
  1  5  1  0  0  0  0
  1 10  1  0  0  0  0
  3  4  1  0  0  0  0
  4  5  1  0  0  0  0
  5  6  2  0  0  0  0
  6  7  1  0  0  0  0
  6  8  1  0  0  0  0
  8  9  1  0  0  0  0
 10 18  1  0  0  0  0
 10  8  2  0  0  0  0
 11 12  1  0  0  0  0
 11  3  1  0  0  0  0
 13 11  1  0  0  0  0
 14 11  1  0  0  0  0
 14 16  1  0  0  0  0
 15 14  1  0  0  0  0
 17 14  1  0  0  0  0
 18  2  1  0  0  0  0
 19 21  1  0  0  0  0
 19 18  2  0  0  0  0
 20 19  1  0  0  0  0
 21 23  2  0  0  0  0
 22 21  1  0  0  0  0
 23  2  1  0  0  0  0
 23 24  1  0  0  0  0
M  END
