7
 OpenBabel05122313113D

 40 41  0  0  1  0  0  0  0  0999 V2000
   -1.1502    2.6801    2.6951 O   0  0  0  0  0  0  0  0  0  0  0  0
   -1.6673    3.8652    0.8461 O   0  0  0  0  0  0  0  0  0  0  0  0
   -3.2662   -3.8015    0.6767 O   0  0  0  0  0  0  0  0  0  0  0  0
   -2.3491    1.1874   -0.1937 C   0  0  1  0  0  0  0  0  0  0  0  0
   -2.1650    2.0565   -0.8636 H   0  0  0  0  0  0  0  0  0  0  0  0
   -1.1015    0.3839    0.0102 C   0  0  0  0  0  2  0  0  0  0  0  0
   -1.0350   -0.9180   -0.0506 C   0  0  0  0  0  2  0  0  0  0  0  0
   -2.1292   -1.8942   -0.2771 C   0  0  2  0  0  0  0  0  0  0  0  0
   -1.8362   -2.6412   -1.0483 H   0  0  0  0  0  0  0  0  0  0  0  0
   -4.3903   -1.8780   -1.4120 C   0  0  0  0  0  0  0  0  0  0  0  0
   -4.3378   -2.9748   -1.3545 H   0  0  0  0  0  0  0  0  0  0  0  0
   -5.4603   -1.2539   -2.0653 C   0  0  0  0  0  0  0  0  0  0  0  0
   -6.2568   -1.8611   -2.5225 H   0  0  0  0  0  0  0  0  0  0  0  0
   -5.4844    0.1446   -2.1674 C   0  0  0  0  0  0  0  0  0  0  0  0
   -6.2913    0.6521   -2.7181 H   0  0  0  0  0  0  0  0  0  0  0  0
   -4.4633    0.8956   -1.5712 C   0  0  0  0  0  0  0  0  0  0  0  0
   -4.4743    1.9912   -1.6711 H   0  0  0  0  0  0  0  0  0  0  0  0
   -3.4039    0.2879   -0.8625 C   0  0  0  0  0  0  0  0  0  0  0  0
   -3.3470   -1.1327   -0.8231 C   0  0  0  0  0  0  0  0  0  0  0  0
   -2.8747    1.8212    1.1685 C   0  0  0  0  0  0  0  0  0  0  0  0
   -3.1110    0.7435    2.2309 C   0  0  0  0  0  0  0  0  0  0  0  0
   -2.1950    0.1518    2.4121 H   0  0  0  0  0  0  0  0  0  0  0  0
   -3.9104    0.0572    1.8888 H   0  0  0  0  0  0  0  0  0  0  0  0
   -3.4247    1.2010    3.1892 H   0  0  0  0  0  0  0  0  0  0  0  0
   -4.1698    2.6410    0.9815 C   0  0  0  0  0  0  0  0  0  0  0  0
   -4.4252    3.1652    1.9255 H   0  0  0  0  0  0  0  0  0  0  0  0
   -5.0147    1.9737    0.7271 H   0  0  0  0  0  0  0  0  0  0  0  0
   -4.0638    3.4033    0.1868 H   0  0  0  0  0  0  0  0  0  0  0  0
   -1.8001    2.7872    1.6689 C   0  0  0  0  0  0  0  0  0  0  0  0
   -0.7985    4.8918    1.3314 C   0  0  0  0  0  0  0  0  0  0  0  0
   -1.1853    5.3162    2.2805 H   0  0  0  0  0  0  0  0  0  0  0  0
   -0.7820    5.6738    0.5500 H   0  0  0  0  0  0  0  0  0  0  0  0
    0.2196    4.4975    1.5178 H   0  0  0  0  0  0  0  0  0  0  0  0
   -2.3958   -2.7295    0.9852 C   0  0  0  0  0  0  0  0  0  0  0  0
   -1.4174   -3.1149    1.3667 H   0  0  0  0  0  0  0  0  0  0  0  0
   -2.8300   -2.0856    1.7870 H   0  0  0  0  0  0  0  0  0  0  0  0
   -3.6105   -4.5649    1.8036 C   0  0  0  0  0  0  0  0  0  0  0  0
   -2.7151   -5.0253    2.2910 H   0  0  0  0  0  0  0  0  0  0  0  0
   -4.2867   -5.3772    1.4713 H   0  0  0  0  0  0  0  0  0  0  0  0
   -4.1391   -3.9578    2.5800 H   0  0  0  0  0  0  0  0  0  0  0  0
  2 30  1  0  0  0  0
  2 29  1  0  0  0  0
  3 34  1  0  0  0  0
  3 37  1  0  0  0  0
  4  5  1  6  0  0  0
  4  6  1  0  0  0  0
  4 20  1  0  0  0  0
  7  6  1  0  0  0  0
  8  9  1  6  0  0  0
  8  7  1  0  0  0  0
  8 34  1  0  0  0  0
 10 11  1  0  0  0  0
 10 19  1  0  0  0  0
 12 10  2  0  0  0  0
 13 12  1  0  0  0  0
 14 12  1  0  0  0  0
 14 16  2  0  0  0  0
 15 14  1  0  0  0  0
 16 18  1  0  0  0  0
 17 16  1  0  0  0  0
 18 19  2  0  0  0  0
 18  4  1  0  0  0  0
 19  8  1  0  0  0  0
 20 29  1  0  0  0  0
 20 21  1  0  0  0  0
 21 22  1  0  0  0  0
 21 24  1  0  0  0  0
 23 21  1  0  0  0  0
 25 20  1  0  0  0  0
 25 26  1  0  0  0  0
 27 25  1  0  0  0  0
 28 25  1  0  0  0  0
 29  1  2  0  0  0  0
 30 33  1  0  0  0  0
 30 31  1  0  0  0  0
 32 30  1  0  0  0  0
 34 35  1  0  0  0  0
 34 36  1  0  0  0  0
 37 38  1  0  0  0  0
 37 40  1  0  0  0  0
 39 37  1  0  0  0  0
M  END
