1
 OpenBabel05122313113D

 14 14  0  0  0  0  0  0  0  0999 V2000
   -2.0750    0.6955    1.5662 C   0  0  0  0  0  2  0  0  0  0  0  0
   -2.2283    0.9996    2.6068 H   0  0  0  0  0  0  0  0  0  0  0  0
   -2.6203    0.1585    0.5145 C   0  0  0  0  0  2  0  0  0  0  0  0
   -3.8318   -0.2260   -0.1745 C   0  0  0  0  0  0  0  0  0  0  0  0
   -3.8587   -1.3048   -1.0902 C   0  0  0  0  0  0  0  0  0  0  0  0
   -2.9179   -1.8215   -1.3214 H   0  0  0  0  0  0  0  0  0  0  0  0
   -5.0621   -1.6877   -1.6946 C   0  0  0  0  0  0  0  0  0  0  0  0
   -5.0709   -2.5328   -2.3998 H   0  0  0  0  0  0  0  0  0  0  0  0
   -6.2512   -0.9932   -1.4167 C   0  0  0  0  0  0  0  0  0  0  0  0
   -7.1925   -1.2916   -1.9033 H   0  0  0  0  0  0  0  0  0  0  0  0
   -6.2344    0.0875   -0.5186 C   0  0  0  0  0  0  0  0  0  0  0  0
   -7.1623    0.6376   -0.2987 H   0  0  0  0  0  0  0  0  0  0  0  0
   -5.0382    0.4669    0.1009 C   0  0  0  0  0  0  0  0  0  0  0  0
   -5.0191    1.3115    0.8060 H   0  0  0  0  0  0  0  0  0  0  0  0
  1  2  1  0  0  0  0
  3  1  1  0  0  0  0
  4 13  1  0  0  0  0
  4  3  1  0  0  0  0
  5  4  2  0  0  0  0
  6  5  1  0  0  0  0
  7  9  2  0  0  0  0
  7  5  1  0  0  0  0
  8  7  1  0  0  0  0
  9 11  1  0  0  0  0
 10  9  1  0  0  0  0
 11 12  1  0  0  0  0
 11 13  2  0  0  0  0
 13 14  1  0  0  0  0
M  END
