1
 OpenBabel05122313113D

 37 38  0  0  0  0  0  0  0  0999 V2000
    0.1374    1.4179    0.0522 C   0  0  0  0  0  2  0  0  0  0  0  0
   -1.1463    1.9122   -0.0533 N   0  0  0  0  0  0  0  0  0  0  0  0
   -1.1438    3.3023   -0.1671 C   0  0  0  0  0  0  0  0  0  0  0  0
    0.1667    3.6923   -0.1398 C   0  0  0  0  0  0  0  0  0  0  0  0
    0.9287    2.5401   -0.0002 N   0  0  0  0  0  0  0  0  0  0  0  0
    2.3899    2.5222    0.1002 C   0  0  0  0  0  0  0  0  0  0  0  0
    3.0777    2.0421   -1.1785 C   0  0  0  0  0  0  0  0  0  0  0  0
    4.5937    1.9591   -1.0125 C   0  0  0  0  0  0  0  0  0  0  0  0
    5.0816    1.6066   -1.9429 H   0  0  0  0  0  0  0  0  0  0  0  0
    4.8642    1.2505   -0.2023 H   0  0  0  0  0  0  0  0  0  0  0  0
    5.0375    2.9439   -0.7552 H   0  0  0  0  0  0  0  0  0  0  0  0
    2.8077    2.7126   -2.0233 H   0  0  0  0  0  0  0  0  0  0  0  0
    2.6676    1.0375   -1.4143 H   0  0  0  0  0  0  0  0  0  0  0  0
    2.7107    3.5508    0.3638 H   0  0  0  0  0  0  0  0  0  0  0  0
    2.6422    1.8569    0.9520 H   0  0  0  0  0  0  0  0  0  0  0  0
    0.6208    4.6860   -0.1924 H   0  0  0  0  0  0  0  0  0  0  0  0
   -2.0716    3.8766   -0.2352 H   0  0  0  0  0  0  0  0  0  0  0  0
   -2.3515    1.1292   -0.0427 C   0  0  0  0  0  0  0  0  0  0  0  0
   -3.0463    0.9492   -1.2615 C   0  0  0  0  0  0  0  0  0  0  0  0
   -2.5344    1.5509   -2.5461 C   0  0  0  0  0  0  0  0  0  0  0  0
   -3.0815    1.1452   -3.4178 H   0  0  0  0  0  0  0  0  0  0  0  0
   -1.4535    1.3434   -2.6868 H   0  0  0  0  0  0  0  0  0  0  0  0
   -2.6461    2.6551   -2.5614 H   0  0  0  0  0  0  0  0  0  0  0  0
   -4.2128    0.1660   -1.2444 C   0  0  0  0  0  0  0  0  0  0  0  0
   -4.6908   -0.4280   -0.0609 C   0  0  0  0  0  0  0  0  0  0  0  0
   -3.9824   -0.1995    1.1321 C   0  0  0  0  0  0  0  0  0  0  0  0
   -2.8120    0.5816    1.1750 C   0  0  0  0  0  0  0  0  0  0  0  0
   -2.0875    0.8251    2.4688 C   0  0  0  0  0  0  0  0  0  0  0  0
   -2.7038    0.5121    3.3324 H   0  0  0  0  0  0  0  0  0  0  0  0
   -1.1218    0.2752    2.5066 H   0  0  0  0  0  0  0  0  0  0  0  0
   -1.8249    1.8953    2.5922 H   0  0  0  0  0  0  0  0  0  0  0  0
   -4.3540   -0.6373    2.0724 H   0  0  0  0  0  0  0  0  0  0  0  0
   -5.9156   -1.3076   -0.0791 C   0  0  0  0  0  0  0  0  0  0  0  0
   -6.4210   -1.3254    0.9062 H   0  0  0  0  0  0  0  0  0  0  0  0
   -5.6441   -2.3566   -0.3266 H   0  0  0  0  0  0  0  0  0  0  0  0
   -6.6486   -0.9740   -0.8401 H   0  0  0  0  0  0  0  0  0  0  0  0
   -4.7572    0.0065   -2.1890 H   0  0  0  0  0  0  0  0  0  0  0  0
  2 18  1  0  0  0  0
  2  1  1  0  0  0  0
  3  4  2  0  0  0  0
  3  2  1  0  0  0  0
  4  5  1  0  0  0  0
  5  1  1  0  0  0  0
  5  6  1  0  0  0  0
  6 14  1  0  0  0  0
  6 15  1  0  0  0  0
  7  8  1  0  0  0  0
  7  6  1  0  0  0  0
  8 11  1  0  0  0  0
  8 10  1  0  0  0  0
  9  8  1  0  0  0  0
 12  7  1  0  0  0  0
 13  7  1  0  0  0  0
 16  4  1  0  0  0  0
 17  3  1  0  0  0  0
 18 27  1  0  0  0  0
 19 24  1  0  0  0  0
 19 18  2  0  0  0  0
 20 19  1  0  0  0  0
 21 20  1  0  0  0  0
 22 20  1  0  0  0  0
 23 20  1  0  0  0  0
 24 25  2  0  0  0  0
 25 26  1  0  0  0  0
 26 27  2  0  0  0  0
 26 32  1  0  0  0  0
 27 28  1  0  0  0  0
 28 30  1  0  0  0  0
 28 31  1  0  0  0  0
 28 29  1  0  0  0  0
 33 25  1  0  0  0  0
 33 34  1  0  0  0  0
 35 33  1  0  0  0  0
 36 33  1  0  0  0  0
 37 24  1  0  0  0  0
M  END
