2
 OpenBabel05122313113D

 15 14  0  0  0  0  0  0  0  0999 V2000
   -1.0001    1.9593    1.2436 N   0  0  0  0  0  2  0  0  0  0  0  0
   -0.1359    1.4379    0.6039 C   0  0  0  0  0  1  0  0  0  0  0  0
   -2.3402    2.4142    1.5293 C   0  0  0  0  0  0  0  0  0  0  0  0
   -3.2661    1.8946    0.4100 C   0  0  0  0  0  0  0  0  0  0  0  0
   -2.3293    3.9537    1.5651 C   0  0  0  0  0  0  0  0  0  0  0  0
   -2.7645    1.8417    2.8944 C   0  0  0  0  0  0  0  0  0  0  0  0
   -3.2555    0.7873    0.3803 H   0  0  0  0  0  0  0  0  0  0  0  0
   -2.9347    2.2683   -0.5781 H   0  0  0  0  0  0  0  0  0  0  0  0
   -4.3050    2.2346    0.5927 H   0  0  0  0  0  0  0  0  0  0  0  0
   -2.0056    4.3627    0.5882 H   0  0  0  0  0  0  0  0  0  0  0  0
   -1.6371    4.3238    2.3465 H   0  0  0  0  0  0  0  0  0  0  0  0
   -3.3466    4.3321    1.7866 H   0  0  0  0  0  0  0  0  0  0  0  0
   -2.7607    0.7342    2.8666 H   0  0  0  0  0  0  0  0  0  0  0  0
   -2.0758    2.1781    3.6941 H   0  0  0  0  0  0  0  0  0  0  0  0
   -3.7884    2.1827    3.1442 H   0  0  0  0  0  0  0  0  0  0  0  0
  1  3  1  0  0  0  0
  2  1  1  0  0  0  0
  3  5  1  0  0  0  0
  3  6  1  0  0  0  0
  4  9  1  0  0  0  0
  4  3  1  0  0  0  0
  5 12  1  0  0  0  0
  5 11  1  0  0  0  0
  6 15  1  0  0  0  0
  6 14  1  0  0  0  0
  7  4  1  0  0  0  0
  8  4  1  0  0  0  0
 10  5  1  0  0  0  0
 13  6  1  0  0  0  0
M  END
