2
 OpenBabel05122313113D

 19 19  0  0  0  0  0  0  0  0999 V2000
    0.9900   -1.4477    1.6180 N   0  0  0  0  0  2  0  0  0  0  0  0
    0.0331   -1.1727    0.9508 C   0  0  0  0  0  1  0  0  0  0  0  0
    2.4126   -1.5860    1.7402 C   0  0  0  0  0  0  0  0  0  0  0  0
    3.0949   -0.2696    1.3169 C   0  0  0  0  0  0  0  0  0  0  0  0
    2.7414    0.5554    1.9664 H   0  0  0  0  0  0  0  0  0  0  0  0
    2.7508   -0.0298    0.2878 H   0  0  0  0  0  0  0  0  0  0  0  0
    4.6223   -0.3802    1.3443 C   0  0  0  0  0  0  0  0  0  0  0  0
    5.0621    0.5730    0.9821 H   0  0  0  0  0  0  0  0  0  0  0  0
    4.9692   -0.5067    2.3948 H   0  0  0  0  0  0  0  0  0  0  0  0
    5.1140   -1.5638    0.5012 C   0  0  0  0  0  0  0  0  0  0  0  0
    4.8711   -1.3752   -0.5684 H   0  0  0  0  0  0  0  0  0  0  0  0
    6.2186   -1.6531    0.5642 H   0  0  0  0  0  0  0  0  0  0  0  0
    4.4442   -2.8724    0.9417 C   0  0  0  0  0  0  0  0  0  0  0  0
    4.7628   -3.1174    1.9803 H   0  0  0  0  0  0  0  0  0  0  0  0
    4.7814   -3.7173    0.3064 H   0  0  0  0  0  0  0  0  0  0  0  0
    2.9150   -2.7681    0.8859 C   0  0  0  0  0  0  0  0  0  0  0  0
    2.5829   -2.5982   -0.1607 H   0  0  0  0  0  0  0  0  0  0  0  0
    2.4340   -3.7062    1.2302 H   0  0  0  0  0  0  0  0  0  0  0  0
    2.6537   -1.7922    2.8076 H   0  0  0  0  0  0  0  0  0  0  0  0
  1  3  1  0  0  0  0
  2  1  1  0  0  0  0
  3 19  1  0  0  0  0
  4  7  1  0  0  0  0
  4  3  1  0  0  0  0
  4  5  1  0  0  0  0
  6  4  1  0  0  0  0
  7  9  1  0  0  0  0
  8  7  1  0  0  0  0
 10 12  1  0  0  0  0
 10 13  1  0  0  0  0
 10  7  1  0  0  0  0
 11 10  1  0  0  0  0
 13 14  1  0  0  0  0
 15 13  1  0  0  0  0
 16 13  1  0  0  0  0
 16 18  1  0  0  0  0
 16  3  1  0  0  0  0
 17 16  1  0  0  0  0
M  END
