4
 OpenBabel05122313113D

 14 15  0  0  0  0  0  0  0  0999 V2000
    2.2826    0.5530   -0.9316 C   0  0  0  0  0  0  0  0  0  0  0  0
    0.9008    0.3604   -1.5001 C   0  0  0  0  0  3  0  0  0  0  0  0
    0.5588    0.8898   -2.4068 H   0  0  0  0  0  0  0  0  0  0  0  0
    1.1255   -1.1390   -1.4157 C   0  0  0  0  0  3  0  0  0  0  0  0
    0.9709   -1.8509   -2.2438 H   0  0  0  0  0  0  0  0  0  0  0  0
    2.4902   -0.8558   -0.8526 C   0  0  0  0  0  0  0  0  0  0  0  0
    4.6767   -0.4756    0.0412 C   0  0  0  0  0  0  0  0  0  0  0  0
    5.6381   -0.8562    0.4203 H   0  0  0  0  0  0  0  0  0  0  0  0
    3.2686    1.4620   -0.5560 C   0  0  0  0  0  0  0  0  0  0  0  0
    3.1676    2.5528   -0.6823 H   0  0  0  0  0  0  0  0  0  0  0  0
    3.6775   -1.4002   -0.3752 C   0  0  0  0  0  0  0  0  0  0  0  0
    3.8736   -2.4847   -0.3496 H   0  0  0  0  0  0  0  0  0  0  0  0
    4.4797    0.9105   -0.0488 C   0  0  0  0  0  0  0  0  0  0  0  0
    5.2919    1.5884    0.2576 H   0  0  0  0  0  0  0  0  0  0  0  0
  1  6  2  0  0  0  0
  1  9  1  0  0  0  0
  2  4  1  0  0  0  0
  2  1  1  0  0  0  0
  3  2  1  0  0  0  0
  4  6  1  0  0  0  0
  5  4  1  0  0  0  0
  6 11  1  0  0  0  0
  7  8  1  0  0  0  0
  9 13  2  0  0  0  0
 10  9  1  0  0  0  0
 11 12  1  0  0  0  0
 11  7  2  0  0  0  0
 13  7  1  0  0  0  0
 13 14  1  0  0  0  0
M  END
