3
 OpenBabel05122313113D

 11 10  0  0  0  0  0  0  0  0999 V2000
    0.1080    2.2641    1.9393 S   0  0  0  0  0  0  0  0  0  0  0  0
   -0.0132    2.6238   -0.7270 N   0  0  0  0  0  0  0  0  0  0  0  0
    0.0298    1.7903    0.3321 C   0  0  0  0  0  3  0  0  0  0  0  0
    0.0527    4.0714   -0.5879 C   0  0  0  0  0  0  0  0  0  0  0  0
    0.1568    4.3125    0.4872 H   0  0  0  0  0  0  0  0  0  0  0  0
   -0.8720    4.5359   -0.9922 H   0  0  0  0  0  0  0  0  0  0  0  0
    0.9300    4.4619   -1.1462 H   0  0  0  0  0  0  0  0  0  0  0  0
   -0.1774    2.1503   -2.0910 C   0  0  0  0  0  0  0  0  0  0  0  0
   -0.1293    1.0431   -2.0914 H   0  0  0  0  0  0  0  0  0  0  0  0
    0.6259    2.5601   -2.7386 H   0  0  0  0  0  0  0  0  0  0  0  0
   -1.1603    2.4727   -2.4970 H   0  0  0  0  0  0  0  0  0  0  0  0
  2  4  1  0  0  0  0
  2  3  1  0  0  0  0
  3  1  2  0  0  0  0
  4  5  1  0  0  0  0
  6  4  1  0  0  0  0
  7  4  1  0  0  0  0
  8  2  1  0  0  0  0
  9  8  1  0  0  0  0
 10  8  1  0  0  0  0
 11  8  1  0  0  0  0
M  END
