2
 OpenBabel05122313113D

 22 22  0  0  0  0  0  0  0  0999 V2000
   -2.8927    1.3211   -1.1643 C   0  0  0  0  0  0  0  0  0  0  0  0
   -1.7364    2.1045   -0.8702 C   0  0  0  0  0  3  0  0  0  0  0  0
   -1.5719    2.1228    0.5453 C   0  0  0  0  0  0  0  0  0  0  0  0
   -2.6163    1.3365    1.1107 C   0  0  0  0  0  0  0  0  0  0  0  0
   -3.4535    0.8459    0.0578 C   0  0  0  0  0  0  0  0  0  0  0  0
   -4.7240    0.0134    0.1984 C   0  0  0  0  0  0  0  0  0  0  0  0
   -4.9639   -0.3630    1.6709 C   0  0  0  0  0  0  0  0  0  0  0  0
   -4.6295   -1.2777   -0.6423 C   0  0  0  0  0  0  0  0  0  0  0  0
   -5.9075    0.8694   -0.3091 C   0  0  0  0  0  0  0  0  0  0  0  0
   -3.2592    1.0912   -2.1712 H   0  0  0  0  0  0  0  0  0  0  0  0
   -1.0827    2.5884   -1.6061 H   0  0  0  0  0  0  0  0  0  0  0  0
   -0.7663    2.6178    1.0992 H   0  0  0  0  0  0  0  0  0  0  0  0
   -2.7398    1.1183    2.1766 H   0  0  0  0  0  0  0  0  0  0  0  0
   -4.1160   -0.9551    2.0686 H   0  0  0  0  0  0  0  0  0  0  0  0
   -5.8852   -0.9734    1.7612 H   0  0  0  0  0  0  0  0  0  0  0  0
   -5.0946    0.5376    2.3052 H   0  0  0  0  0  0  0  0  0  0  0  0
   -3.8130   -1.9292   -0.2739 H   0  0  0  0  0  0  0  0  0  0  0  0
   -4.4271   -1.0615   -1.7098 H   0  0  0  0  0  0  0  0  0  0  0  0
   -5.5832   -1.8419   -0.5805 H   0  0  0  0  0  0  0  0  0  0  0  0
   -5.9940    1.8130    0.2672 H   0  0  0  0  0  0  0  0  0  0  0  0
   -6.8608    0.3106   -0.2039 H   0  0  0  0  0  0  0  0  0  0  0  0
   -5.7838    1.1341   -1.3787 H   0  0  0  0  0  0  0  0  0  0  0  0
  1  2  1  0  0  0  0
  1  5  2  0  0  0  0
  2  3  1  0  0  0  0
  3 12  1  0  0  0  0
  3  4  2  0  0  0  0
  4 13  1  0  0  0  0
  5  6  1  0  0  0  0
  5  4  1  0  0  0  0
  6  7  1  0  0  0  0
  7 15  1  0  0  0  0
  7 14  1  0  0  0  0
  7 16  1  0  0  0  0
  8 19  1  0  0  0  0
  8 17  1  0  0  0  0
  8  6  1  0  0  0  0
  9 21  1  0  0  0  0
  9  6  1  0  0  0  0
  9 20  1  0  0  0  0
 10  1  1  0  0  0  0
 11  2  1  0  0  0  0
 18  8  1  0  0  0  0
 22  9  1  0  0  0  0
M  END
