4
 OpenBabel05122313113D

 38 40  0  0  0  0  0  0  0  0999 V2000
   -5.5541   -2.4948    0.7364 O   0  0  0  0  0  0  0  0  0  0  0  0
    1.9883   -1.6822   -0.9362 N   0  0  0  0  0  0  0  0  0  0  0  0
   -0.2600   -1.2035   -0.5452 N   0  0  0  0  0  0  0  0  0  0  0  0
    0.3170   -0.0054   -0.5781 C   0  0  0  0  0  2  0  0  0  0  0  0
    1.7253   -0.2421   -1.0969 C   0  0  0  0  0  0  0  0  0  0  0  0
    1.7424    0.0588   -2.1720 H   0  0  0  0  0  0  0  0  0  0  0  0
    2.4863    0.3756   -0.5837 H   0  0  0  0  0  0  0  0  0  0  0  0
    0.6857   -2.2697   -1.0581 C   0  0  0  0  0  0  0  0  0  0  0  0
    0.5862   -3.2099   -0.4849 H   0  0  0  0  0  0  0  0  0  0  0  0
    0.3996   -2.4608   -2.1174 H   0  0  0  0  0  0  0  0  0  0  0  0
    2.6510   -1.9884    0.3438 C   0  0  0  0  0  0  0  0  0  0  0  0
    2.6722   -3.0958    0.4380 H   0  0  0  0  0  0  0  0  0  0  0  0
    2.0807   -1.6011    1.2254 H   0  0  0  0  0  0  0  0  0  0  0  0
   -1.6196   -1.5106   -0.2479 C   0  0  0  0  0  0  0  0  0  0  0  0
   -1.9281   -2.6530    0.5210 C   0  0  0  0  0  0  0  0  0  0  0  0
   -1.1244   -3.2962    0.9078 H   0  0  0  0  0  0  0  0  0  0  0  0
   -3.2529   -2.9553    0.8314 C   0  0  0  0  0  0  0  0  0  0  0  0
   -3.5090   -3.8328    1.4416 H   0  0  0  0  0  0  0  0  0  0  0  0
   -4.3014   -2.1225    0.3783 C   0  0  0  0  0  0  0  0  0  0  0  0
   -3.9941   -0.9863   -0.4009 C   0  0  0  0  0  0  0  0  0  0  0  0
   -4.7846   -0.3224   -0.7737 H   0  0  0  0  0  0  0  0  0  0  0  0
   -2.6618   -0.6901   -0.7125 C   0  0  0  0  0  0  0  0  0  0  0  0
   -2.4228    0.1958   -1.3181 H   0  0  0  0  0  0  0  0  0  0  0  0
   -6.6440   -1.6814    0.3337 C   0  0  0  0  0  0  0  0  0  0  0  0
   -7.5542   -2.1560    0.7436 H   0  0  0  0  0  0  0  0  0  0  0  0
   -6.7312   -1.6275   -0.7742 H   0  0  0  0  0  0  0  0  0  0  0  0
   -6.5585   -0.6488    0.7383 H   0  0  0  0  0  0  0  0  0  0  0  0
    4.0672   -1.4574    0.3906 C   0  0  0  0  0  0  0  0  0  0  0  0
    4.5359   -0.7534    1.5150 C   0  0  0  0  0  0  0  0  0  0  0  0
    3.8534   -0.5652    2.3592 H   0  0  0  0  0  0  0  0  0  0  0  0
    5.8589   -0.2854    1.5653 C   0  0  0  0  0  0  0  0  0  0  0  0
    6.2105    0.2661    2.4504 H   0  0  0  0  0  0  0  0  0  0  0  0
    6.7245   -0.5100    0.4848 C   0  0  0  0  0  0  0  0  0  0  0  0
    7.7600   -0.1388    0.5198 H   0  0  0  0  0  0  0  0  0  0  0  0
    6.2610   -1.2027   -0.6468 C   0  0  0  0  0  0  0  0  0  0  0  0
    6.9346   -1.3759   -1.5001 H   0  0  0  0  0  0  0  0  0  0  0  0
    4.9418   -1.6727   -0.6940 C   0  0  0  0  0  0  0  0  0  0  0  0
    4.5660   -2.2021   -1.5827 H   0  0  0  0  0  0  0  0  0  0  0  0
  2 11  1  0  0  0  0
  3 14  1  0  0  0  0
  4  3  1  0  0  0  0
  5  2  1  0  0  0  0
  5  7  1  0  0  0  0
  5  4  1  0  0  0  0
  6  5  1  0  0  0  0
  8  2  1  0  0  0  0
  8  3  1  0  0  0  0
  8  9  1  0  0  0  0
 10  8  1  0  0  0  0
 11 28  1  0  0  0  0
 11 12  1  0  0  0  0
 11 13  1  0  0  0  0
 14 15  1  0  0  0  0
 15 17  2  0  0  0  0
 15 16  1  0  0  0  0
 17 18  1  0  0  0  0
 19  1  1  0  0  0  0
 19 17  1  0  0  0  0
 20 19  2  0  0  0  0
 21 20  1  0  0  0  0
 22 20  1  0  0  0  0
 22 14  2  0  0  0  0
 23 22  1  0  0  0  0
 24  1  1  0  0  0  0
 24 27  1  0  0  0  0
 24 25  1  0  0  0  0
 26 24  1  0  0  0  0
 28 29  1  0  0  0  0
 29 31  2  0  0  0  0
 29 30  1  0  0  0  0
 31 32  1  0  0  0  0
 33 34  1  0  0  0  0
 33 31  1  0  0  0  0
 35 33  2  0  0  0  0
 36 35  1  0  0  0  0
 37 35  1  0  0  0  0
 37 28  2  0  0  0  0
 38 37  1  0  0  0  0
M  END
