10
 OpenBabel05122313113D

 32 33  0  0  0  0  0  0  0  0999 V2000
    2.4818    0.1743    0.1539 N   0  0  0  0  0  0  0  0  0  0  0  0
    2.9667    0.6351    1.4844 C   0  0  0  0  0  0  0  0  0  0  0  0
    3.0591    1.0314   -0.9160 C   0  0  0  0  0  0  0  0  0  0  0  0
    2.8857   -1.2246   -0.0751 C   0  0  0  0  0  0  0  0  0  0  0  0
    4.2207   -1.6485   -0.0553 C   0  0  0  0  0  0  0  0  0  0  0  0
    4.5231   -2.9996   -0.2910 C   0  0  0  0  0  0  0  0  0  0  0  0
    3.4899   -3.9214   -0.5485 C   0  0  0  0  0  0  0  0  0  0  0  0
    2.1572   -3.5016   -0.5730 C   0  0  0  0  0  0  0  0  0  0  0  0
    1.8406   -2.1404   -0.3360 C   0  0  0  0  0  0  0  0  0  0  0  0
    0.5330   -1.5789   -0.3207 C   0  0  0  0  0  3  0  0  0  0  0  0
   -0.7289   -1.3889   -0.4210 C   0  0  0  0  0  0  0  0  0  0  0  0
   -2.0929   -1.7665   -0.6804 C   0  0  0  0  0  0  0  0  0  0  0  0
   -2.9268   -0.9769   -1.5113 C   0  0  0  0  0  0  0  0  0  0  0  0
   -4.2473   -1.3676   -1.7626 C   0  0  0  0  0  0  0  0  0  0  0  0
   -4.7670   -2.5401   -1.1863 C   0  0  0  0  0  3  0  0  0  0  0  0
   -3.9485   -3.3294   -0.3611 C   0  0  0  0  0  0  0  0  0  0  0  0
   -2.6242   -2.9504   -0.1094 C   0  0  0  0  0  0  0  0  0  0  0  0
    4.0763    0.6108    1.5292 H   0  0  0  0  0  0  0  0  0  0  0  0
    2.5343   -0.0162    2.2626 H   0  0  0  0  0  0  0  0  0  0  0  0
    2.6048    1.6664    1.6455 H   0  0  0  0  0  0  0  0  0  0  0  0
    2.7085    2.0696   -0.7787 H   0  0  0  0  0  0  0  0  0  0  0  0
    2.7149    0.6600   -1.8968 H   0  0  0  0  0  0  0  0  0  0  0  0
    4.1698    1.0132   -0.8795 H   0  0  0  0  0  0  0  0  0  0  0  0
    5.0337   -0.9355    0.1461 H   0  0  0  0  0  0  0  0  0  0  0  0
    5.5707   -3.3346   -0.2711 H   0  0  0  0  0  0  0  0  0  0  0  0
    3.7331   -4.9791   -0.7318 H   0  0  0  0  0  0  0  0  0  0  0  0
    1.3426   -4.2122   -0.7740 H   0  0  0  0  0  0  0  0  0  0  0  0
   -2.5111   -0.0600   -1.9496 H   0  0  0  0  0  0  0  0  0  0  0  0
   -4.8812   -0.7501   -2.4179 H   0  0  0  0  0  0  0  0  0  0  0  0
   -5.8080   -2.8393   -1.3820 H   0  0  0  0  0  0  0  0  0  0  0  0
   -4.3476   -4.2492    0.0936 H   0  0  0  0  0  0  0  0  0  0  0  0
   -1.9821   -3.5600    0.5436 H   0  0  0  0  0  0  0  0  0  0  0  0
  1  2  1  0  0  0  0
  2 18  1  0  0  0  0
  2 20  1  0  0  0  0
  2 19  1  0  0  0  0
  3 23  1  0  0  0  0
  3 21  1  0  0  0  0
  3  1  1  0  0  0  0
  4  5  1  0  0  0  0
  4  1  1  0  0  0  0
  5 24  1  0  0  0  0
  6 25  1  0  0  0  0
  6  5  2  0  0  0  0
  7  6  1  0  0  0  0
  8  7  2  0  0  0  0
  8  9  1  0  0  0  0
  9 10  1  0  0  0  0
  9  4  2  0  0  0  0
 11 10  2  0  0  0  0
 12 11  2  0  0  0  0
 12 17  1  0  0  0  0
 13 12  1  0  0  0  0
 14 13  2  0  0  0  0
 14 15  1  0  0  0  0
 15 16  1  0  0  0  0
 16 17  2  0  0  0  0
 16 31  1  0  0  0  0
 17 32  1  0  0  0  0
 22  3  1  0  0  0  0
 26  7  1  0  0  0  0
 27  8  1  0  0  0  0
 28 13  1  0  0  0  0
 29 14  1  0  0  0  0
 30 15  1  0  0  0  0
M  END
