10
 OpenBabel05122313113D

 61 63  0  0  0  0  0  0  0  0999 V2000
    2.8318    2.2426    2.4655 F   0  0  0  0  0  0  0  0  0  0  0  0
    1.2813    0.7504    2.1127 F   0  0  0  0  0  0  0  0  0  0  0  0
    3.3619    0.1465    2.3035 F   0  0  0  0  0  0  0  0  0  0  0  0
    3.7416    3.4491    0.2062 F   0  0  0  0  0  0  0  0  0  0  0  0
    4.2458    2.0720   -1.3947 F   0  0  0  0  0  0  0  0  0  0  0  0
    5.0580    1.7689    0.6139 F   0  0  0  0  0  0  0  0  0  0  0  0
    1.5857    1.9308   -0.3155 O   0  0  0  0  0  0  0  0  0  0  0  0
    0.6701   -0.0255   -1.7570 N   0  0  0  0  0  0  0  0  0  0  0  0
   -1.4393    0.4512   -1.9446 N   0  0  0  0  0  0  0  0  0  0  0  0
   -0.5302   -0.1473   -1.1032 C   0  0  0  0  0  2  0  0  0  0  0  0
    1.9207   -0.6391   -1.3919 C   0  0  0  0  0  0  0  0  0  0  0  0
    2.8377   -0.0980   -0.4572 C   0  0  0  0  0  0  0  0  0  0  0  0
    2.6844    1.2729    0.2399 C   0  0  0  0  0  0  0  0  0  0  0  0
    0.9526    3.0642    0.2971 C   0  0  0  0  0  0  0  0  0  0  0  0
    1.5453    3.4642    1.1435 H   0  0  0  0  0  0  0  0  0  0  0  0
   -0.0178    2.7082    0.7117 H   0  0  0  0  0  0  0  0  0  0  0  0
    0.7280    4.1517   -0.7088 C   0  0  0  0  0  0  0  0  0  0  0  0
    1.1974    4.1664   -1.9664 C   0  0  0  0  0  0  0  0  0  0  0  0
    2.5439    1.0884    1.8055 C   0  0  0  0  0  0  0  0  0  0  0  0
    3.9596    2.1501   -0.0801 C   0  0  0  0  0  0  0  0  0  0  0  0
    4.0140   -0.8324   -0.1978 C   0  0  0  0  0  0  0  0  0  0  0  0
    4.7414   -0.4421    0.5218 H   0  0  0  0  0  0  0  0  0  0  0  0
    4.3086   -2.0452   -0.8351 C   0  0  0  0  0  0  0  0  0  0  0  0
    5.5521   -2.8201   -0.4854 C   0  0  0  0  0  0  0  0  0  0  0  0
    5.3133   -3.6332    0.2330 H   0  0  0  0  0  0  0  0  0  0  0  0
    6.3180   -2.1756   -0.0125 H   0  0  0  0  0  0  0  0  0  0  0  0
    5.9999   -3.2980   -1.3793 H   0  0  0  0  0  0  0  0  0  0  0  0
    3.4016   -2.5238   -1.7927 C   0  0  0  0  0  0  0  0  0  0  0  0
    3.6133   -3.4673   -2.3199 H   0  0  0  0  0  0  0  0  0  0  0  0
    2.2121   -1.8450   -2.0856 C   0  0  0  0  0  0  0  0  0  0  0  0
    1.2548   -2.4091   -3.1032 C   0  0  0  0  0  0  0  0  0  0  0  0
    1.6121   -3.3903   -3.4664 H   0  0  0  0  0  0  0  0  0  0  0  0
    1.1315   -1.7415   -3.9801 H   0  0  0  0  0  0  0  0  0  0  0  0
    0.2544   -2.5606   -2.6482 H   0  0  0  0  0  0  0  0  0  0  0  0
    0.5137    0.6448   -2.9662 C   0  0  0  0  0  0  0  0  0  0  0  0
    1.3656    0.8500   -3.6194 H   0  0  0  0  0  0  0  0  0  0  0  0
   -0.8134    0.9437   -3.0875 C   0  0  0  0  0  0  0  0  0  0  0  0
   -1.3724    1.4501   -3.8783 H   0  0  0  0  0  0  0  0  0  0  0  0
   -2.8588    0.5348   -1.7153 C   0  0  0  0  0  0  0  0  0  0  0  0
   -3.6368   -0.6416   -1.8053 C   0  0  0  0  0  0  0  0  0  0  0  0
   -3.0312   -1.9682   -2.1717 C   0  0  0  0  0  0  0  0  0  0  0  0
   -2.2880   -1.8667   -2.9883 H   0  0  0  0  0  0  0  0  0  0  0  0
   -3.8127   -2.6809   -2.4963 H   0  0  0  0  0  0  0  0  0  0  0  0
   -2.4880   -2.4203   -1.3133 H   0  0  0  0  0  0  0  0  0  0  0  0
   -5.0166   -0.5294   -1.5503 C   0  0  0  0  0  0  0  0  0  0  0  0
   -5.6353   -1.4391   -1.6090 H   0  0  0  0  0  0  0  0  0  0  0  0
   -5.6248    0.6987   -1.2387 C   0  0  0  0  0  0  0  0  0  0  0  0
   -7.0969    0.7775   -0.9221 C   0  0  0  0  0  0  0  0  0  0  0  0
   -7.5295    1.7526   -1.2218 H   0  0  0  0  0  0  0  0  0  0  0  0
   -7.2712    0.6646    0.1697 H   0  0  0  0  0  0  0  0  0  0  0  0
   -7.6678   -0.0262   -1.4271 H   0  0  0  0  0  0  0  0  0  0  0  0
   -4.8182    1.8521   -1.2151 C   0  0  0  0  0  0  0  0  0  0  0  0
   -5.2792    2.8303   -1.0017 H   0  0  0  0  0  0  0  0  0  0  0  0
   -3.4347    1.7995   -1.4539 C   0  0  0  0  0  0  0  0  0  0  0  0
   -2.5973    3.0493   -1.4258 C   0  0  0  0  0  0  0  0  0  0  0  0
   -1.6970    2.8964   -0.8036 H   0  0  0  0  0  0  0  0  0  0  0  0
   -3.1711    3.9012   -1.0145 H   0  0  0  0  0  0  0  0  0  0  0  0
   -2.2436    3.3429   -2.4356 H   0  0  0  0  0  0  0  0  0  0  0  0
    0.9892    5.0077   -2.6441 H   0  0  0  0  0  0  0  0  0  0  0  0
    0.1134    4.9902   -0.3342 H   0  0  0  0  0  0  0  0  0  0  0  0
    1.8099    3.3343   -2.3441 H   0  0  0  0  0  0  0  0  0  0  0  0
  5 20  1  0  0  0  0
  7 13  1  0  0  0  0
  7 14  1  0  0  0  0
  8 11  1  0  0  0  0
  8 10  1  0  0  0  0
  9 39  1  0  0  0  0
  9 10  1  0  0  0  0
 11 12  1  0  0  0  0
 12 21  2  0  0  0  0
 12 13  1  0  0  0  0
 13 19  1  0  0  0  0
 14 16  1  0  0  0  0
 14 15  1  0  0  0  0
 17 60  1  0  0  0  0
 17 14  1  0  0  0  0
 18 17  2  0  0  0  0
 19  2  1  0  0  0  0
 19  3  1  0  0  0  0
 19  1  1  0  0  0  0
 20  4  1  0  0  0  0
 20 13  1  0  0  0  0
 20  6  1  0  0  0  0
 21 22  1  0  0  0  0
 23 24  1  0  0  0  0
 23 21  1  0  0  0  0
 24 26  1  0  0  0  0
 24 25  1  0  0  0  0
 27 24  1  0  0  0  0
 28 23  2  0  0  0  0
 29 28  1  0  0  0  0
 30 28  1  0  0  0  0
 30 11  2  0  0  0  0
 31 34  1  0  0  0  0
 31 30  1  0  0  0  0
 32 31  1  0  0  0  0
 33 31  1  0  0  0  0
 35  8  1  0  0  0  0
 36 35  1  0  0  0  0
 37 35  2  0  0  0  0
 37  9  1  0  0  0  0
 38 37  1  0  0  0  0
 39 54  1  0  0  0  0
 40 39  2  0  0  0  0
 40 45  1  0  0  0  0
 41 40  1  0  0  0  0
 41 44  1  0  0  0  0
 42 41  1  0  0  0  0
 43 41  1  0  0  0  0
 45 47  2  0  0  0  0
 46 45  1  0  0  0  0
 47 52  1  0  0  0  0
 47 48  1  0  0  0  0
 48 50  1  0  0  0  0
 49 48  1  0  0  0  0
 51 48  1  0  0  0  0
 52 53  1  0  0  0  0
 54 55  1  0  0  0  0
 54 52  2  0  0  0  0
 55 57  1  0  0  0  0
 55 56  1  0  0  0  0
 58 55  1  0  0  0  0
 59 18  1  0  0  0  0
 61 18  1  0  0  0  0
M  END
