3
 OpenBabel05122313113D

 16 17  0  0  0  0  0  0  0  0999 V2000
    3.2700    0.0000    0.1863 C   0  0  0  0  0  0  0  0  0  0  0  0
    4.3955   -0.0001    0.7054 O   0  0  0  0  0  0  0  0  0  0  0  0
   -0.7949    0.7274   -1.8522 C   0  0  0  0  0  3  0  0  0  0  0  0
   -1.3864    1.4958   -2.3632 H   0  0  0  0  0  0  0  0  0  0  0  0
    0.4421    0.7354   -1.0649 C   0  0  0  0  0  0  0  0  0  0  0  0
    1.4434    1.6698   -0.6346 C   0  0  0  0  0  0  0  0  0  0  0  0
    1.2108    2.7407   -0.7562 H   0  0  0  0  0  0  0  0  0  0  0  0
    2.6543    1.3264   -0.1028 C   0  0  0  0  0  0  0  0  0  0  0  0
    3.3406    2.1376    0.1883 H   0  0  0  0  0  0  0  0  0  0  0  0
   -0.7948   -0.7263   -1.8527 C   0  0  0  0  0  3  0  0  0  0  0  0
   -1.3866   -1.4944   -2.3638 H   0  0  0  0  0  0  0  0  0  0  0  0
    0.4421   -0.7347   -1.0652 C   0  0  0  0  0  0  0  0  0  0  0  0
    1.4436   -1.6693   -0.6357 C   0  0  0  0  0  0  0  0  0  0  0  0
    1.2111   -2.7401   -0.7581 H   0  0  0  0  0  0  0  0  0  0  0  0
    2.6544   -1.3262   -0.1038 C   0  0  0  0  0  0  0  0  0  0  0  0
    3.3408   -2.1375    0.1867 H   0  0  0  0  0  0  0  0  0  0  0  0
  1  2  2  0  0  0  0
  3  5  1  0  0  0  0
  4  3  1  0  0  0  0
  5  6  1  0  0  0  0
  6  8  2  0  0  0  0
  7  6  1  0  0  0  0
  8  1  1  0  0  0  0
  8  9  1  0  0  0  0
 10  3  1  0  0  0  0
 10 12  1  0  0  0  0
 11 10  1  0  0  0  0
 12  5  2  0  0  0  0
 12 13  1  0  0  0  0
 13 15  2  0  0  0  0
 14 13  1  0  0  0  0
 15  1  1  0  0  0  0
 15 16  1  0  0  0  0
M  END
