2
 OpenBabel05122313113D

 25 25  0  0  1  0  0  0  0  0999 V2000
    0.4125    1.8036    0.0870 N   0  0  0  0  0  0  0  0  0  0  0  0
    1.0270   -0.7916   -0.3791 C   0  0  0  0  0  3  0  0  0  0  0  0
    1.3322   -2.0706   -0.8886 C   0  0  0  0  0  0  0  0  0  0  0  0
    0.5272   -2.7855   -1.1194 H   0  0  0  0  0  0  0  0  0  0  0  0
    2.6610   -2.4810   -1.0943 C   0  0  0  0  0  0  0  0  0  0  0  0
    2.8660   -3.4893   -1.4876 H   0  0  0  0  0  0  0  0  0  0  0  0
    3.7205   -1.6130   -0.7964 C   0  0  0  0  0  0  0  0  0  0  0  0
    4.7624   -1.9247   -0.9646 H   0  0  0  0  0  0  0  0  0  0  0  0
    3.4425   -0.3442   -0.2634 C   0  0  0  0  0  0  0  0  0  0  0  0
    4.2767    0.3268   -0.0074 H   0  0  0  0  0  0  0  0  0  0  0  0
    2.1143    0.0579   -0.0390 C   0  0  0  0  0  0  0  0  0  0  0  0
    1.7482    1.3510    0.6521 C   0  0  1  0  0  0  0  0  0  0  0  0
    1.4893    1.0784    1.6977 H   0  0  0  0  0  0  0  0  0  0  0  0
    2.8352    2.4250    0.6673 C   0  0  0  0  0  0  0  0  0  0  0  0
    2.4796    3.3744    1.1136 H   0  0  0  0  0  0  0  0  0  0  0  0
    3.2423    2.6370   -0.3413 H   0  0  0  0  0  0  0  0  0  0  0  0
    3.6767    2.0768    1.2966 H   0  0  0  0  0  0  0  0  0  0  0  0
   -0.2501    2.7496    1.0113 C   0  0  0  0  0  0  0  0  0  0  0  0
   -0.4215    2.2358    1.9751 H   0  0  0  0  0  0  0  0  0  0  0  0
   -1.2228    3.0542    0.5837 H   0  0  0  0  0  0  0  0  0  0  0  0
    0.3665    3.6615    1.1686 H   0  0  0  0  0  0  0  0  0  0  0  0
    0.5907    2.4218   -1.2435 C   0  0  0  0  0  0  0  0  0  0  0  0
    1.1099    1.7060   -1.9076 H   0  0  0  0  0  0  0  0  0  0  0  0
    1.1846    3.3586   -1.1747 H   0  0  0  0  0  0  0  0  0  0  0  0
   -0.3964    2.6688   -1.6719 H   0  0  0  0  0  0  0  0  0  0  0  0
  1 12  1  0  0  0  0
  1 18  1  0  0  0  0
  2 11  1  0  0  0  0
  3  2  2  0  0  0  0
  4  3  1  0  0  0  0
  5  3  1  0  0  0  0
  5  7  2  0  0  0  0
  6  5  1  0  0  0  0
  7  9  1  0  0  0  0
  8  7  1  0  0  0  0
  9 11  2  0  0  0  0
  9 10  1  0  0  0  0
 11 12  1  0  0  0  0
 12 14  1  0  0  0  0
 12 13  1  1  0  0  0
 14 15  1  0  0  0  0
 14 17  1  0  0  0  0
 16 14  1  0  0  0  0
 18 21  1  0  0  0  0
 18 19  1  0  0  0  0
 20 18  1  0  0  0  0
 22 24  1  0  0  0  0
 22  1  1  0  0  0  0
 23 22  1  0  0  0  0
 25 22  1  0  0  0  0
M  END
