6
 OpenBabel05122313113D

 49 51  0  0  1  0  0  0  0  0999 V2000
   -0.6868   -0.1232    1.5156 C   0  0  1  0  0  0  0  0  0  0  0  0
   -0.9713    0.6353    0.2318 C   0  0  1  0  0  3  0  0  0  0  0  0
   -0.5751    1.9419    0.1436 O   0  0  0  0  0  0  0  0  0  0  0  0
   -0.8475    2.7809    1.2545 C   0  0  0  0  0  0  0  0  0  0  0  0
   -1.0314   -0.0340   -1.0374 C   0  0  0  0  0  3  0  0  0  0  0  0
   -1.6479   -1.3146   -1.0446 C   0  0  0  0  0  3  0  0  0  0  0  0
   -2.1220   -1.7907    0.2314 C   0  0  1  0  0  3  0  0  0  0  0  0
   -2.9372   -3.0597    0.2896 C   0  0  0  0  0  0  0  0  0  0  0  0
   -1.2209   -1.5651    1.4377 C   0  0  0  0  0  0  0  0  0  0  0  0
    1.0796    0.0138    2.0590 S   0  0  0  0  0  0  0  0  0  0  0  0
    2.0094   -0.8914    0.7498 C   0  0  0  0  0  0  0  0  0  0  0  0
    3.1791   -0.0843    0.1965 C   0  0  1  0  0  0  0  0  0  0  0  0
    2.7765    0.9728   -0.8809 C   0  0  2  0  0  0  0  0  0  0  0  0
    1.7779    0.5371   -1.7939 O   0  0  0  0  0  0  0  0  0  0  0  0
    4.1475    1.2977   -1.5548 C   0  0  0  0  0  0  0  0  0  0  0  0
    5.1595    0.3837   -0.8261 C   0  0  1  0  0  0  0  0  0  0  0  0
    5.3647    0.9807    0.5798 C   0  0  0  0  0  0  0  0  0  0  0  0
    3.9947    0.7075    1.2619 C   0  0  0  0  0  0  0  0  0  0  0  0
    4.3238   -0.9009   -0.5266 C   0  0  0  0  0  0  0  0  0  0  0  0
    3.9103   -1.6772   -1.7916 C   0  0  0  0  0  0  0  0  0  0  0  0
    5.0281   -1.9129    0.3924 C   0  0  0  0  0  0  0  0  0  0  0  0
   -1.1833    0.4039    2.3543 H   0  0  0  0  0  0  0  0  0  0  0  0
   -0.2089    2.5287    2.1289 H   0  0  0  0  0  0  0  0  0  0  0  0
   -1.9218    2.7205    1.5426 H   0  0  0  0  0  0  0  0  0  0  0  0
   -0.6187    3.8133    0.9306 H   0  0  0  0  0  0  0  0  0  0  0  0
   -0.6759    0.4791   -1.9395 H   0  0  0  0  0  0  0  0  0  0  0  0
   -1.8147   -1.8603   -1.9861 H   0  0  0  0  0  0  0  0  0  0  0  0
   -3.5297   -3.2208   -0.6315 H   0  0  0  0  0  0  0  0  0  0  0  0
   -3.6392   -3.0445    1.1475 H   0  0  0  0  0  0  0  0  0  0  0  0
   -2.2735   -3.9427    0.4310 H   0  0  0  0  0  0  0  0  0  0  0  0
   -0.3753   -2.2872    1.3880 H   0  0  0  0  0  0  0  0  0  0  0  0
   -1.7706   -1.8090    2.3689 H   0  0  0  0  0  0  0  0  0  0  0  0
    1.2983   -1.1307   -0.0669 H   0  0  0  0  0  0  0  0  0  0  0  0
    2.3676   -1.8435    1.1923 H   0  0  0  0  0  0  0  0  0  0  0  0
    2.3200    1.8519   -0.3850 H   0  0  0  0  0  0  0  0  0  0  0  0
    2.1386   -0.2246   -2.2829 H   0  0  0  0  0  0  0  0  0  0  0  0
    4.0783    1.0827   -2.6399 H   0  0  0  0  0  0  0  0  0  0  0  0
    4.4230    2.3673   -1.4663 H   0  0  0  0  0  0  0  0  0  0  0  0
    6.0980    0.2107   -1.3909 H   0  0  0  0  0  0  0  0  0  0  0  0
    6.1975    0.4841    1.1154 H   0  0  0  0  0  0  0  0  0  0  0  0
    5.6119    2.0596    0.5316 H   0  0  0  0  0  0  0  0  0  0  0  0
    4.1041    0.1154    2.1928 H   0  0  0  0  0  0  0  0  0  0  0  0
    3.4572    1.6329    1.5454 H   0  0  0  0  0  0  0  0  0  0  0  0
    3.6565   -1.0356   -2.6591 H   0  0  0  0  0  0  0  0  0  0  0  0
    3.0574   -2.3586   -1.5909 H   0  0  0  0  0  0  0  0  0  0  0  0
    4.7528   -2.3119   -2.1355 H   0  0  0  0  0  0  0  0  0  0  0  0
    4.3968   -2.8135    0.5389 H   0  0  0  0  0  0  0  0  0  0  0  0
    5.2662   -1.5140    1.3953 H   0  0  0  0  0  0  0  0  0  0  0  0
    5.9780   -2.2534   -0.0693 H   0  0  0  0  0  0  0  0  0  0  0  0
  1 10  1  0  0  0  0
  1 22  1  1  0  0  0
  2  3  1  6  0  0  0
  2  1  1  0  0  0  0
  3  4  1  0  0  0  0
  4 24  1  0  0  0  0
  4 23  1  0  0  0  0
  5  2  1  0  0  0  0
  6  5  1  0  0  0  0
  6  7  1  0  0  0  0
  7  8  1  6  0  0  0
  7  9  1  0  0  0  0
  8 30  1  0  0  0  0
  8 29  1  0  0  0  0
  9  1  1  0  0  0  0
  9 32  1  0  0  0  0
 11 34  1  0  0  0  0
 11 10  1  0  0  0  0
 12 11  1  1  0  0  0
 12 18  1  0  0  0  0
 13 35  1  1  0  0  0
 13 12  1  0  0  0  0
 14 13  1  0  0  0  0
 15 38  1  0  0  0  0
 15 13  1  0  0  0  0
 15 16  1  0  0  0  0
 16 39  1  6  0  0  0
 16 19  1  0  0  0  0
 16 17  1  0  0  0  0
 17 40  1  0  0  0  0
 17 18  1  0  0  0  0
 18 43  1  0  0  0  0
 18 42  1  0  0  0  0
 19 12  1  0  0  0  0
 19 21  1  0  0  0  0
 20 45  1  0  0  0  0
 20 19  1  0  0  0  0
 21 47  1  0  0  0  0
 21 48  1  0  0  0  0
 25  4  1  0  0  0  0
 26  5  1  0  0  0  0
 27  6  1  0  0  0  0
 28  8  1  0  0  0  0
 31  9  1  0  0  0  0
 33 11  1  0  0  0  0
 36 14  1  0  0  0  0
 37 15  1  0  0  0  0
 41 17  1  0  0  0  0
 44 20  1  0  0  0  0
 46 20  1  0  0  0  0
 49 21  1  0  0  0  0
M  END
