1
 OpenBabel05122313113D

 32 33  0  0  0  0  0  0  0  0999 V2000
    0.9670    0.0993   -0.0115 C   0  0  0  0  0  2  0  0  0  0  0  0
    0.5548    1.5149   -0.0867 C   0  0  0  0  0  0  0  0  0  0  0  0
    0.7010    2.3724    1.0281 C   0  0  0  0  0  0  0  0  0  0  0  0
    0.3296    3.7205    0.9359 C   0  0  0  0  0  0  0  0  0  0  0  0
   -0.1665    4.2415   -0.2699 C   0  0  0  0  0  0  0  0  0  0  0  0
   -0.3025    3.3992   -1.3853 C   0  0  0  0  0  0  0  0  0  0  0  0
    0.0395    2.0436   -1.2951 C   0  0  0  0  0  0  0  0  0  0  0  0
   -0.2573   -1.0856   -0.0435 S   0  0  0  0  0  0  0  0  0  0  0  0
   -1.8234   -0.2842    0.0290 C   0  0  0  0  0  0  0  0  0  0  0  0
   -2.9678   -1.0191   -0.0849 C   0  0  0  0  0  0  0  0  0  0  0  0
   -2.8526   -2.3402   -0.4236 O   0  0  0  0  0  0  0  0  0  0  0  0
   -3.4833   -3.2907    0.4388 C   0  0  0  0  0  0  0  0  0  0  0  0
   -4.3196   -0.4322    0.0348 C   0  0  0  0  0  0  0  0  0  0  0  0
   -4.5791    0.6432    0.9142 C   0  0  0  0  0  0  0  0  0  0  0  0
   -5.8566    1.2132    0.9816 C   0  0  0  0  0  0  0  0  0  0  0  0
   -6.8976    0.7128    0.1820 C   0  0  0  0  0  0  0  0  0  0  0  0
   -6.6520   -0.3606   -0.6902 C   0  0  0  0  0  0  0  0  0  0  0  0
   -5.3749   -0.9301   -0.7652 C   0  0  0  0  0  0  0  0  0  0  0  0
    1.1077    1.9707    1.9675 H   0  0  0  0  0  0  0  0  0  0  0  0
    0.4415    4.3731    1.8149 H   0  0  0  0  0  0  0  0  0  0  0  0
   -0.4413    5.3044   -0.3422 H   0  0  0  0  0  0  0  0  0  0  0  0
   -0.6823    3.7994   -2.3376 H   0  0  0  0  0  0  0  0  0  0  0  0
   -0.0694    1.3822   -2.1679 H   0  0  0  0  0  0  0  0  0  0  0  0
   -3.7726    1.0172    1.5626 H   0  0  0  0  0  0  0  0  0  0  0  0
   -6.0452    2.0480    1.6734 H   0  0  0  0  0  0  0  0  0  0  0  0
   -7.9023    1.1579    0.2411 H   0  0  0  0  0  0  0  0  0  0  0  0
   -7.4619   -0.7523   -1.3242 H   0  0  0  0  0  0  0  0  0  0  0  0
   -5.1720   -1.7540   -1.4657 H   0  0  0  0  0  0  0  0  0  0  0  0
   -3.0024   -3.2878    1.4409 H   0  0  0  0  0  0  0  0  0  0  0  0
   -1.8438    0.8078    0.1465 H   0  0  0  0  0  0  0  0  0  0  0  0
   -3.3391   -4.2809   -0.0310 H   0  0  0  0  0  0  0  0  0  0  0  0
   -4.5695   -3.0934    0.5585 H   0  0  0  0  0  0  0  0  0  0  0  0
  2  1  1  0  0  0  0
  2  3  1  0  0  0  0
  3 19  1  0  0  0  0
  4  3  2  0  0  0  0
  4 20  1  0  0  0  0
  5  4  1  0  0  0  0
  6  7  1  0  0  0  0
  6  5  2  0  0  0  0
  7  2  2  0  0  0  0
  8  1  1  0  0  0  0
  8  9  1  0  0  0  0
  9 30  1  0  0  0  0
 10  9  2  0  0  0  0
 10 13  1  0  0  0  0
 11 10  1  0  0  0  0
 11 12  1  0  0  0  0
 12 32  1  0  0  0  0
 12 29  1  0  0  0  0
 13 14  1  0  0  0  0
 14 15  2  0  0  0  0
 14 24  1  0  0  0  0
 15 25  1  0  0  0  0
 16 26  1  0  0  0  0
 16 15  1  0  0  0  0
 17 16  2  0  0  0  0
 18 17  1  0  0  0  0
 18 13  2  0  0  0  0
 21  5  1  0  0  0  0
 22  6  1  0  0  0  0
 23  7  1  0  0  0  0
 27 17  1  0  0  0  0
 28 18  1  0  0  0  0
 31 12  1  0  0  0  0
M  END
