3
 OpenBabel05122313113D

 21 22  0  0  0  0  0  0  0  0999 V2000
   -1.9980    1.0989   -0.2123 N   0  0  0  0  0  0  0  0  0  0  0  0
   -1.9979   -1.0987   -0.2123 N   0  0  0  0  0  0  0  0  0  0  0  0
   -1.1615    0.0001   -0.2920 C   0  0  0  0  0  2  0  0  0  0  0  0
   -1.6076    2.4979   -0.2164 C   0  0  0  0  0  0  0  0  0  0  0  0
   -0.5847    2.5811   -0.6302 H   0  0  0  0  0  0  0  0  0  0  0  0
   -1.6666    2.9212    0.8078 H   0  0  0  0  0  0  0  0  0  0  0  0
   -2.2957    3.0621   -0.8756 H   0  0  0  0  0  0  0  0  0  0  0  0
   -3.3248    0.7060   -0.0644 C   0  0  0  0  0  0  0  0  0  0  0  0
   -4.5118    1.4383    0.0764 C   0  0  0  0  0  0  0  0  0  0  0  0
   -4.5129    2.5370    0.0809 H   0  0  0  0  0  0  0  0  0  0  0  0
   -5.7020    0.7059    0.2150 C   0  0  0  0  0  0  0  0  0  0  0  0
   -6.6543    1.2449    0.3272 H   0  0  0  0  0  0  0  0  0  0  0  0
   -5.7020   -0.7059    0.2150 C   0  0  0  0  0  0  0  0  0  0  0  0
   -6.6542   -1.2450    0.3272 H   0  0  0  0  0  0  0  0  0  0  0  0
   -4.5117   -1.4383    0.0764 C   0  0  0  0  0  0  0  0  0  0  0  0
   -4.5128   -2.5369    0.0809 H   0  0  0  0  0  0  0  0  0  0  0  0
   -3.3247   -0.7059   -0.0644 C   0  0  0  0  0  0  0  0  0  0  0  0
   -1.6074   -2.4977   -0.2162 C   0  0  0  0  0  0  0  0  0  0  0  0
   -2.2956   -3.0621   -0.8751 H   0  0  0  0  0  0  0  0  0  0  0  0
   -1.6662   -2.9208    0.8081 H   0  0  0  0  0  0  0  0  0  0  0  0
   -0.5846   -2.5809   -0.6302 H   0  0  0  0  0  0  0  0  0  0  0  0
  1  8  1  0  0  0  0
  2 17  1  0  0  0  0
  3  2  1  0  0  0  0
  3  1  1  0  0  0  0
  4  1  1  0  0  0  0
  4  6  1  0  0  0  0
  5  4  1  0  0  0  0
  7  4  1  0  0  0  0
  8  9  1  0  0  0  0
  9 10  1  0  0  0  0
  9 11  2  0  0  0  0
 11 13  1  0  0  0  0
 11 12  1  0  0  0  0
 13 14  1  0  0  0  0
 15 16  1  0  0  0  0
 15 13  2  0  0  0  0
 17  8  2  0  0  0  0
 17 15  1  0  0  0  0
 18  2  1  0  0  0  0
 18 20  1  0  0  0  0
 19 18  1  0  0  0  0
 21 18  1  0  0  0  0
M  END
