2
 OpenBabel05122313113D

 11 10  0  0  0  0  0  0  0  0999 V2000
   -2.7550    1.6473    0.0414 N   0  0  0  0  0  0  0  0  0  0  0  0
   -2.3406    0.6036   -0.6549 C   0  0  0  0  0  2  0  0  0  0  0  0
   -2.3809    1.8585    1.4374 C   0  0  0  0  0  0  0  0  0  0  0  0
   -3.6225    2.6767   -0.5256 C   0  0  0  0  0  0  0  0  0  0  0  0
   -2.7597    0.5990   -1.6832 H   0  0  0  0  0  0  0  0  0  0  0  0
   -3.2930    1.8570    2.0688 H   0  0  0  0  0  0  0  0  0  0  0  0
   -1.8622    2.8323    1.5447 H   0  0  0  0  0  0  0  0  0  0  0  0
   -1.7166    1.0330    1.7496 H   0  0  0  0  0  0  0  0  0  0  0  0
   -4.5453    2.7756    0.0819 H   0  0  0  0  0  0  0  0  0  0  0  0
   -3.8966    2.4054   -1.5607 H   0  0  0  0  0  0  0  0  0  0  0  0
   -3.0920    3.6521   -0.5287 H   0  0  0  0  0  0  0  0  0  0  0  0
  1  3  1  0  0  0  0
  2  1  1  0  0  0  0
  3  7  1  0  0  0  0
  3  8  1  0  0  0  0
  3  6  1  0  0  0  0
  4  1  1  0  0  0  0
  4  9  1  0  0  0  0
  5  2  1  0  0  0  0
 10  4  1  0  0  0  0
 11  4  1  0  0  0  0
M  END
