2
 OpenBabel05122313113D

 15 14  0  0  0  0  0  0  0  0999 V2000
    4.8031   -0.0573   -0.0000 Si  0  0  0  0  0  0  0  0  0  0  0  0
    1.7236   -0.1534   -0.0000 C   0  0  0  0  0  3  0  0  0  0  0  0
    2.9726   -0.1059   -0.0000 C   0  0  0  0  0  0  0  0  0  0  0  0
    5.3921    1.7472    0.0006 C   0  0  0  0  0  0  0  0  0  0  0  0
    5.4640   -0.9292    1.5477 C   0  0  0  0  0  0  0  0  0  0  0  0
    5.4638   -0.9281   -1.5485 C   0  0  0  0  0  0  0  0  0  0  0  0
    5.0186    2.2821   -0.8967 H   0  0  0  0  0  0  0  0  0  0  0  0
    5.0184    2.2817    0.8979 H   0  0  0  0  0  0  0  0  0  0  0  0
    6.5005    1.8076    0.0007 H   0  0  0  0  0  0  0  0  0  0  0  0
    6.5736   -0.9091    1.5728 H   0  0  0  0  0  0  0  0  0  0  0  0
    5.0867   -0.4379    2.4675 H   0  0  0  0  0  0  0  0  0  0  0  0
    5.1353   -1.9879    1.5710 H   0  0  0  0  0  0  0  0  0  0  0  0
    5.1351   -1.9868   -1.5725 H   0  0  0  0  0  0  0  0  0  0  0  0
    5.0862   -0.4362   -2.4678 H   0  0  0  0  0  0  0  0  0  0  0  0
    6.5734   -0.9079   -1.5739 H   0  0  0  0  0  0  0  0  0  0  0  0
  1  3  1  0  0  0  0
  1  4  1  0  0  0  0
  1  5  1  0  0  0  0
  2  3  3  0  0  0  0
  4  9  1  0  0  0  0
  4  8  1  0  0  0  0
  5 12  1  0  0  0  0
  5 10  1  0  0  0  0
  5 11  1  0  0  0  0
  6  1  1  0  0  0  0
  7  4  1  0  0  0  0
 13  6  1  0  0  0  0
 14  6  1  0  0  0  0
 15  6  1  0  0  0  0
M  END
