2
 OpenBabel05122313113D

 26 29  0  0  1  0  0  0  0  0999 V2000
    1.5279   -0.7389   -1.6492 Br  0  0  0  0  0  0  0  0  0  0  0  0
    0.7163    0.0514   -0.0455 C   0  0  2  0  0  3  0  0  0  0  0  0
    1.5217    1.1860    0.5659 C   0  0  2  0  0  0  0  0  0  0  0  0
    2.8165    1.6522    0.0101 C   0  0  0  0  0  0  0  0  0  0  0  0
    2.8819    2.9347   -0.5655 C   0  0  0  0  0  0  0  0  0  0  0  0
    4.0699    3.4251   -1.1200 C   0  0  0  0  0  0  0  0  0  0  0  0
    5.2205    2.6214   -1.0909 C   0  0  0  0  0  0  0  0  0  0  0  0
    5.1702    1.3504   -0.5076 C   0  0  0  0  0  0  0  0  0  0  0  0
    3.9812    0.8336    0.0559 C   0  0  0  0  0  0  0  0  0  0  0  0
    3.9373   -0.5036    0.7025 C   0  0  0  0  0  0  0  0  0  0  0  0
    5.0747   -1.3405    0.7710 C   0  0  0  0  0  0  0  0  0  0  0  0
    5.0364   -2.5864    1.4073 C   0  0  0  0  0  0  0  0  0  0  0  0
    3.8470   -3.0327    2.0056 C   0  0  0  0  0  0  0  0  0  0  0  0
    2.7074   -2.2214    1.9513 C   0  0  0  0  0  0  0  0  0  0  0  0
    2.7347   -0.9726    1.3015 C   0  0  0  0  0  0  0  0  0  0  0  0
    1.4843   -0.1779    1.2459 C   0  0  2  0  0  0  0  0  0  0  0  0
    0.9259    1.9923    1.0210 H   0  0  0  0  0  0  0  0  0  0  0  0
    0.8600   -0.2706    2.1468 H   0  0  0  0  0  0  0  0  0  0  0  0
    1.9653    3.5453   -0.5926 H   0  0  0  0  0  0  0  0  0  0  0  0
    4.0978    4.4256   -1.5775 H   0  0  0  0  0  0  0  0  0  0  0  0
    6.1647    2.9861   -1.5232 H   0  0  0  0  0  0  0  0  0  0  0  0
    6.0882    0.7469   -0.4912 H   0  0  0  0  0  0  0  0  0  0  0  0
    6.0203   -1.0158    0.3151 H   0  0  0  0  0  0  0  0  0  0  0  0
    5.9420   -3.2114    1.4362 H   0  0  0  0  0  0  0  0  0  0  0  0
    3.8078   -4.0112    2.5083 H   0  0  0  0  0  0  0  0  0  0  0  0
    1.7575   -2.5562    2.3969 H   0  0  0  0  0  0  0  0  0  0  0  0
  2  1  1  6  0  0  0
  2  3  1  0  0  0  0
  2 16  1  0  0  0  0
  3 17  1  1  0  0  0
  3 16  1  0  0  0  0
  4  9  1  0  0  0  0
  4  3  1  0  0  0  0
  5  4  2  0  0  0  0
  6  7  2  0  0  0  0
  6  5  1  0  0  0  0
  7  8  1  0  0  0  0
  8 22  1  0  0  0  0
  8  9  2  0  0  0  0
  9 10  1  0  0  0  0
 10 11  2  0  0  0  0
 10 15  1  0  0  0  0
 11 12  1  0  0  0  0
 12 24  1  0  0  0  0
 12 13  2  0  0  0  0
 13 25  1  0  0  0  0
 14 13  1  0  0  0  0
 14 26  1  0  0  0  0
 15 14  2  0  0  0  0
 16 15  1  0  0  0  0
 16 18  1  1  0  0  0
 19  5  1  0  0  0  0
 20  6  1  0  0  0  0
 21  7  1  0  0  0  0
 23 11  1  0  0  0  0
M  END
