1
 OpenBabel05122313113D

 59 63  0  0  0  0  0  0  0  0999 V2000
   -0.2559   -0.4350    0.0554 C   0  0  0  0  0  2  0  0  0  0  0  0
   -0.7162    0.8652    0.0609 N   0  0  0  0  0  0  0  0  0  0  0  0
    1.9893   -1.4730   -0.1089 C   0  0  0  0  0  0  0  0  0  0  0  0
    2.6990   -1.9411    1.0158 C   0  0  0  0  0  0  0  0  0  0  0  0
    2.6464   -1.2152    2.3307 C   0  0  0  0  0  0  0  0  0  0  0  0
    3.2178   -0.2655    2.2660 H   0  0  0  0  0  0  0  0  0  0  0  0
    3.0927   -1.8270    3.1368 H   0  0  0  0  0  0  0  0  0  0  0  0
    1.5991   -0.9890    2.6118 H   0  0  0  0  0  0  0  0  0  0  0  0
    3.4918   -3.0879    0.8431 C   0  0  0  0  0  0  0  0  0  0  0  0
    4.0467   -3.4757    1.7122 H   0  0  0  0  0  0  0  0  0  0  0  0
    3.5998   -3.7479   -0.3946 C   0  0  0  0  0  0  0  0  0  0  0  0
    4.4235   -5.0039   -0.5276 C   0  0  0  0  0  0  0  0  0  0  0  0
    3.8520   -5.8905   -0.1779 H   0  0  0  0  0  0  0  0  0  0  0  0
    5.3459   -4.9531    0.0848 H   0  0  0  0  0  0  0  0  0  0  0  0
    4.7156   -5.1936   -1.5790 H   0  0  0  0  0  0  0  0  0  0  0  0
    2.9116   -3.2124   -1.4986 C   0  0  0  0  0  0  0  0  0  0  0  0
    3.0134   -3.6914   -2.4857 H   0  0  0  0  0  0  0  0  0  0  0  0
    2.1061   -2.0669   -1.3832 C   0  0  0  0  0  0  0  0  0  0  0  0
    1.4294   -1.4623   -2.5862 C   0  0  0  0  0  0  0  0  0  0  0  0
    1.6363   -2.0535   -3.4980 H   0  0  0  0  0  0  0  0  0  0  0  0
    1.7847   -0.4254   -2.7653 H   0  0  0  0  0  0  0  0  0  0  0  0
    0.3311   -1.4092   -2.4492 H   0  0  0  0  0  0  0  0  0  0  0  0
    1.5074    1.0042    0.0239 C   0  0  0  0  0  0  0  0  0  0  0  0
    2.8540    1.5849   -0.0157 C   0  0  0  0  0  0  0  0  0  0  0  0
   -0.7388    3.8819    0.0314 O   0  0  0  0  0  0  0  0  0  0  0  0
    2.8622    3.0866   -0.0166 C   0  0  0  0  0  0  0  0  0  0  0  0
    4.1072    3.7406   -0.0434 C   0  0  0  0  0  0  0  0  0  0  0  0
    5.0119    3.1149   -0.0696 H   0  0  0  0  0  0  0  0  0  0  0  0
    4.1749    5.1399   -0.0355 C   0  0  0  0  0  0  0  0  0  0  0  0
    5.1542    5.6416   -0.0571 H   0  0  0  0  0  0  0  0  0  0  0  0
    2.9936    5.9032    0.0001 C   0  0  0  0  0  0  0  0  0  0  0  0
    3.0474    7.0024    0.0069 H   0  0  0  0  0  0  0  0  0  0  0  0
    1.7475    5.2638    0.0265 C   0  0  0  0  0  0  0  0  0  0  0  0
    0.8045    5.8300    0.0529 H   0  0  0  0  0  0  0  0  0  0  0  0
    1.6672    3.8596    0.0185 C   0  0  0  0  0  0  0  0  0  0  0  0
    0.3075    3.2280    0.0404 C   0  0  0  0  0  0  0  0  0  0  0  0
    3.8894    0.9126   -0.0381 O   0  0  0  0  0  0  0  0  0  0  0  0
    0.3424    1.7596    0.0504 C   0  0  0  0  0  0  0  0  0  0  0  0
    1.1193   -0.3302    0.0178 N   0  0  0  0  0  0  0  0  0  0  0  0
   -2.1171    1.1990    0.0354 C   0  0  0  0  0  0  0  0  0  0  0  0
   -2.8546    1.1379    1.2364 C   0  0  0  0  0  0  0  0  0  0  0  0
   -2.1890    0.8142    2.5444 C   0  0  0  0  0  0  0  0  0  0  0  0
   -1.8224   -0.2365    2.5644 H   0  0  0  0  0  0  0  0  0  0  0  0
   -2.8883    0.9573    3.3893 H   0  0  0  0  0  0  0  0  0  0  0  0
   -1.3046    1.4623    2.7147 H   0  0  0  0  0  0  0  0  0  0  0  0
   -4.2360    1.3883    1.1558 C   0  0  0  0  0  0  0  0  0  0  0  0
   -4.8329    1.3383    2.0804 H   0  0  0  0  0  0  0  0  0  0  0  0
   -4.8724    1.6975   -0.0609 C   0  0  0  0  0  0  0  0  0  0  0  0
   -6.3518    1.9858   -0.1074 C   0  0  0  0  0  0  0  0  0  0  0  0
   -6.5487    3.0652    0.0695 H   0  0  0  0  0  0  0  0  0  0  0  0
   -6.9028    1.4228    0.6714 H   0  0  0  0  0  0  0  0  0  0  0  0
   -6.7876    1.7322   -1.0936 H   0  0  0  0  0  0  0  0  0  0  0  0
   -4.0868    1.7696   -1.2268 C   0  0  0  0  0  0  0  0  0  0  0  0
   -4.5655    2.0183   -2.1876 H   0  0  0  0  0  0  0  0  0  0  0  0
   -2.7018    1.5336   -1.2032 C   0  0  0  0  0  0  0  0  0  0  0  0
   -1.8688    1.6681   -2.4504 C   0  0  0  0  0  0  0  0  0  0  0  0
   -2.4950    1.6000   -3.3602 H   0  0  0  0  0  0  0  0  0  0  0  0
   -1.0751    0.8971   -2.5125 H   0  0  0  0  0  0  0  0  0  0  0  0
   -1.3607    2.6558   -2.4652 H   0  0  0  0  0  0  0  0  0  0  0  0
  1  2  1  0  0  0  0
  3 39  1  0  0  0  0
  3  4  1  0  0  0  0
  4  5  1  0  0  0  0
  5  8  1  0  0  0  0
  5  7  1  0  0  0  0
  6  5  1  0  0  0  0
  9  4  2  0  0  0  0
  9 10  1  0  0  0  0
 11  9  1  0  0  0  0
 12 11  1  0  0  0  0
 12 13  1  0  0  0  0
 12 14  1  0  0  0  0
 15 12  1  0  0  0  0
 16 18  1  0  0  0  0
 16 11  2  0  0  0  0
 17 16  1  0  0  0  0
 18  3  2  0  0  0  0
 19 22  1  0  0  0  0
 19 18  1  0  0  0  0
 20 19  1  0  0  0  0
 21 19  1  0  0  0  0
 23 38  2  0  0  0  0
 24 23  1  0  0  0  0
 25 36  2  0  0  0  0
 26 24  1  0  0  0  0
 26 35  1  0  0  0  0
 27 29  1  0  0  0  0
 27 26  2  0  0  0  0
 28 27  1  0  0  0  0
 29 31  2  0  0  0  0
 30 29  1  0  0  0  0
 31 32  1  0  0  0  0
 31 33  1  0  0  0  0
 33 34  1  0  0  0  0
 35 33  2  0  0  0  0
 35 36  1  0  0  0  0
 36 38  1  0  0  0  0
 37 24  2  0  0  0  0
 38  2  1  0  0  0  0
 39 23  1  0  0  0  0
 39  1  1  0  0  0  0
 40  2  1  0  0  0  0
 40 41  1  0  0  0  0
 41 42  1  0  0  0  0
 42 43  1  0  0  0  0
 42 45  1  0  0  0  0
 42 44  1  0  0  0  0
 46 41  2  0  0  0  0
 46 47  1  0  0  0  0
 48 46  1  0  0  0  0
 49 48  1  0  0  0  0
 49 50  1  0  0  0  0
 49 51  1  0  0  0  0
 52 49  1  0  0  0  0
 53 55  1  0  0  0  0
 53 48  2  0  0  0  0
 54 53  1  0  0  0  0
 55 40  2  0  0  0  0
 56 55  1  0  0  0  0
 57 56  1  0  0  0  0
 58 56  1  0  0  0  0
 59 56  1  0  0  0  0
M  END
