3
 OpenBabel05122313113D

 41 43  0  0  0  0  0  0  0  0999 V2000
    1.1758   -1.8637   -0.5535 N   0  0  0  0  0  0  0  0  0  0  0  0
   -0.9940   -1.9351   -0.5652 N   0  0  0  0  0  0  0  0  0  0  0  0
    0.0635   -1.0902   -0.3658 C   0  0  0  0  0  2  0  0  0  0  0  0
    0.8208   -3.1759   -0.8471 C   0  0  0  0  0  0  0  0  0  0  0  0
   -0.5504   -3.2209   -0.8534 C   0  0  0  0  0  0  0  0  0  0  0  0
    2.5204   -1.3657   -0.2400 C   0  0  0  0  0  0  0  0  0  0  0  0
    2.9065   -1.7127    1.2062 C   0  0  0  0  0  0  0  0  0  0  0  0
    4.2798   -1.1222    1.5471 C   0  0  0  0  0  0  0  0  0  0  0  0
    5.3536   -1.5570    0.5405 C   0  0  0  0  0  0  0  0  0  0  0  0
    4.9424   -1.2176   -0.8988 C   0  0  0  0  0  0  0  0  0  0  0  0
    3.5752   -1.8205   -1.2520 C   0  0  0  0  0  0  0  0  0  0  0  0
   -2.3716   -1.5200   -0.2754 C   0  0  0  0  0  0  0  0  0  0  0  0
   -3.3882   -2.0830   -1.2714 C   0  0  0  0  0  0  0  0  0  0  0  0
   -4.7929   -1.5535   -0.9476 C   0  0  0  0  0  0  0  0  0  0  0  0
   -5.1903   -1.8567    0.5038 C   0  0  0  0  0  0  0  0  0  0  0  0
   -4.1502   -1.3168    1.4947 C   0  0  0  0  0  0  0  0  0  0  0  0
   -2.7423   -1.8366    1.1817 C   0  0  0  0  0  0  0  0  0  0  0  0
    1.5583   -3.9592   -1.0415 H   0  0  0  0  0  0  0  0  0  0  0  0
   -1.2329   -4.0510   -1.0541 H   0  0  0  0  0  0  0  0  0  0  0  0
    2.4117   -0.2589   -0.2959 H   0  0  0  0  0  0  0  0  0  0  0  0
    2.9287   -2.8203    1.3190 H   0  0  0  0  0  0  0  0  0  0  0  0
    2.1155   -1.3170    1.8785 H   0  0  0  0  0  0  0  0  0  0  0  0
    4.2021   -0.0117    1.5444 H   0  0  0  0  0  0  0  0  0  0  0  0
    4.5717   -1.4091    2.5786 H   0  0  0  0  0  0  0  0  0  0  0  0
    5.5097   -2.6566    0.6240 H   0  0  0  0  0  0  0  0  0  0  0  0
    6.3288   -1.0849    0.7822 H   0  0  0  0  0  0  0  0  0  0  0  0
    4.8884   -0.1116   -1.0132 H   0  0  0  0  0  0  0  0  0  0  0  0
    5.7099   -1.5686   -1.6195 H   0  0  0  0  0  0  0  0  0  0  0  0
    3.6553   -2.9311   -1.2393 H   0  0  0  0  0  0  0  0  0  0  0  0
    3.2643   -1.5306   -2.2776 H   0  0  0  0  0  0  0  0  0  0  0  0
   -2.3342   -0.4105   -0.3717 H   0  0  0  0  0  0  0  0  0  0  0  0
   -3.3992   -3.1950   -1.2126 H   0  0  0  0  0  0  0  0  0  0  0  0
   -3.0911   -1.8165   -2.3074 H   0  0  0  0  0  0  0  0  0  0  0  0
   -4.8083   -0.4523   -1.1089 H   0  0  0  0  0  0  0  0  0  0  0  0
   -5.5328   -1.9828   -1.6546 H   0  0  0  0  0  0  0  0  0  0  0  0
   -6.1938   -1.4352    0.7223 H   0  0  0  0  0  0  0  0  0  0  0  0
   -5.2798   -2.9593    0.6329 H   0  0  0  0  0  0  0  0  0  0  0  0
   -4.4301   -1.5779    2.5363 H   0  0  0  0  0  0  0  0  0  0  0  0
   -4.1390   -0.2043    1.4463 H   0  0  0  0  0  0  0  0  0  0  0  0
   -1.9798   -1.3702    1.8421 H   0  0  0  0  0  0  0  0  0  0  0  0
   -2.6989   -2.9388    1.3355 H   0  0  0  0  0  0  0  0  0  0  0  0
  1  3  1  0  0  0  0
  1  6  1  0  0  0  0
  2  3  1  0  0  0  0
  2 12  1  0  0  0  0
  4  1  1  0  0  0  0
  5  4  2  0  0  0  0
  5  2  1  0  0  0  0
  6  7  1  0  0  0  0
  7 21  1  0  0  0  0
  7  8  1  0  0  0  0
  7 22  1  0  0  0  0
  8 24  1  0  0  0  0
  9 25  1  0  0  0  0
  9 26  1  0  0  0  0
  9  8  1  0  0  0  0
 10  9  1  0  0  0  0
 11 29  1  0  0  0  0
 11 10  1  0  0  0  0
 11  6  1  0  0  0  0
 12 17  1  0  0  0  0
 13 32  1  0  0  0  0
 13 14  1  0  0  0  0
 13 12  1  0  0  0  0
 14 15  1  0  0  0  0
 15 37  1  0  0  0  0
 15 36  1  0  0  0  0
 15 16  1  0  0  0  0
 16 38  1  0  0  0  0
 17 41  1  0  0  0  0
 17 16  1  0  0  0  0
 17 40  1  0  0  0  0
 18  4  1  0  0  0  0
 19  5  1  0  0  0  0
 20  6  1  0  0  0  0
 23  8  1  0  0  0  0
 27 10  1  0  0  0  0
 28 10  1  0  0  0  0
 30 11  1  0  0  0  0
 31 12  1  0  0  0  0
 33 13  1  0  0  0  0
 34 14  1  0  0  0  0
 35 14  1  0  0  0  0
 39 16  1  0  0  0  0
M  END
