4
 OpenBabel05122313113D

 12 11  0  0  0  0  0  0  0  0999 V2000
    2.3338   -0.5571   -0.1339 S   0  0  0  0  0  3  0  0  0  0  0  0
    3.8045   -0.1776   -1.1381 C   0  0  0  0  0  0  0  0  0  0  0  0
    2.6666    0.4556    1.3297 C   0  0  0  0  0  0  0  0  0  0  0  0
    0.9655    0.2732   -0.9867 C   0  0  0  0  0  3  0  0  0  0  0  0
    4.6901   -0.6067   -0.6313 H   0  0  0  0  0  0  0  0  0  0  0  0
    3.6619   -0.6722   -2.1171 H   0  0  0  0  0  0  0  0  0  0  0  0
    3.9060    0.9175   -1.2638 H   0  0  0  0  0  0  0  0  0  0  0  0
    3.6383    0.1234    1.7410 H   0  0  0  0  0  0  0  0  0  0  0  0
    2.6937    1.5279    1.0576 H   0  0  0  0  0  0  0  0  0  0  0  0
    1.8655    0.2606    2.0637 H   0  0  0  0  0  0  0  0  0  0  0  0
    0.9195   -0.2716   -1.9529 H   0  0  0  0  0  0  0  0  0  0  0  0
    1.3005    1.3131   -1.1806 H   0  0  0  0  0  0  0  0  0  0  0  0
  1  3  1  0  0  0  0
  2  5  1  0  0  0  0
  2  1  1  0  0  0  0
  3  8  1  0  0  0  0
  3 10  1  0  0  0  0
  4  1  1  0  0  0  0
  6  2  1  0  0  0  0
  7  2  1  0  0  0  0
  9  3  1  0  0  0  0
 11  4  1  0  0  0  0
 12  4  1  0  0  0  0
M  END
