8
 OpenBabel05122313113D

 17 16  0  0  0  0  0  0  0  0999 V2000
    2.4187    3.1134    0.4526 C   0  0  0  0  0  0  0  0  0  0  0  0
    2.3549    3.1330    1.5607 H   0  0  0  0  0  0  0  0  0  0  0  0
    3.3399    3.6563    0.1525 H   0  0  0  0  0  0  0  0  0  0  0  0
    2.5379    2.0483    0.1569 H   0  0  0  0  0  0  0  0  0  0  0  0
    1.1570    3.7171   -0.1792 C   0  0  0  0  0  0  0  0  0  0  0  0
    1.2829    3.6978   -1.2877 H   0  0  0  0  0  0  0  0  0  0  0  0
    1.0967    4.7974    0.0903 H   0  0  0  0  0  0  0  0  0  0  0  0
   -0.1061    2.9481    0.1675 C   0  0  0  0  0  3  0  0  0  0  0  0
   -1.2521    3.5702    0.5662 C   0  0  0  0  0  0  0  0  0  0  0  0
   -2.1390    2.9401    0.7865 H   0  0  0  0  0  0  0  0  0  0  0  0
   -1.5278    5.0498    0.7140 C   0  0  0  0  0  0  0  0  0  0  0  0
   -1.9900    5.2401    1.7102 H   0  0  0  0  0  0  0  0  0  0  0  0
   -0.5824    5.6315    0.6976 H   0  0  0  0  0  0  0  0  0  0  0  0
   -2.4731    5.5860   -0.3733 C   0  0  0  0  0  0  0  0  0  0  0  0
   -2.0205    5.4709   -1.3798 H   0  0  0  0  0  0  0  0  0  0  0  0
   -2.7125    6.6602   -0.2241 H   0  0  0  0  0  0  0  0  0  0  0  0
   -3.4319    5.0257   -0.3812 H   0  0  0  0  0  0  0  0  0  0  0  0
  1  2  1  0  0  0  0
  3  1  1  0  0  0  0
  4  1  1  0  0  0  0
  5  7  1  0  0  0  0
  5  8  1  0  0  0  0
  5  1  1  0  0  0  0
  6  5  1  0  0  0  0
  8  9  2  0  0  0  0
  9 11  1  0  0  0  0
  9 10  1  0  0  0  0
 11 12  1  0  0  0  0
 13 11  1  0  0  0  0
 14 16  1  0  0  0  0
 14 11  1  0  0  0  0
 15 14  1  0  0  0  0
 17 14  1  0  0  0  0
M  END
