2
 OpenBabel05122313113D

 22 22  0  0  0  0  0  0  0  0999 V2000
   -0.4408    2.1019    0.0910 N   0  0  0  0  0  0  0  0  0  0  0  0
   -1.5968   -0.6440   -0.0704 C   0  0  0  0  0  3  0  0  0  0  0  0
   -2.3392    0.5355   -0.3159 C   0  0  0  0  0  0  0  0  0  0  0  0
   -3.7452    0.4755   -0.2695 C   0  0  0  0  0  0  0  0  0  0  0  0
   -4.3259    1.3954   -0.4481 H   0  0  0  0  0  0  0  0  0  0  0  0
   -4.4105   -0.7302   -0.0008 C   0  0  0  0  0  0  0  0  0  0  0  0
   -5.5104   -0.7546    0.0313 H   0  0  0  0  0  0  0  0  0  0  0  0
   -3.6705   -1.8975    0.2337 C   0  0  0  0  0  0  0  0  0  0  0  0
   -4.1835   -2.8477    0.4476 H   0  0  0  0  0  0  0  0  0  0  0  0
   -2.2658   -1.8514    0.2015 C   0  0  0  0  0  0  0  0  0  0  0  0
   -1.6950   -2.7731    0.3920 H   0  0  0  0  0  0  0  0  0  0  0  0
   -1.6541    1.8452   -0.6806 C   0  0  0  0  0  0  0  0  0  0  0  0
   -1.3599    1.8030   -1.7528 H   0  0  0  0  0  0  0  0  0  0  0  0
   -2.3910    2.6852   -0.5937 H   0  0  0  0  0  0  0  0  0  0  0  0
    0.4326    3.0946   -0.5178 C   0  0  0  0  0  0  0  0  0  0  0  0
    0.6696    2.8010   -1.5599 H   0  0  0  0  0  0  0  0  0  0  0  0
    1.3867    3.1449    0.0436 H   0  0  0  0  0  0  0  0  0  0  0  0
   -0.0199    4.1190   -0.5368 H   0  0  0  0  0  0  0  0  0  0  0  0
   -0.7226    2.3952    1.4906 C   0  0  0  0  0  0  0  0  0  0  0  0
   -1.3401    1.5864    1.9292 H   0  0  0  0  0  0  0  0  0  0  0  0
   -1.2747    3.3612    1.6201 H   0  0  0  0  0  0  0  0  0  0  0  0
    0.2257    2.4581    2.0604 H   0  0  0  0  0  0  0  0  0  0  0  0
  1 19  1  0  0  0  0
  2 10  1  0  0  0  0
  3  4  1  0  0  0  0
  3  2  2  0  0  0  0
  4  6  2  0  0  0  0
  5  4  1  0  0  0  0
  6  7  1  0  0  0  0
  6  8  1  0  0  0  0
  8  9  1  0  0  0  0
 10  8  2  0  0  0  0
 10 11  1  0  0  0  0
 12 14  1  0  0  0  0
 12  3  1  0  0  0  0
 12  1  1  0  0  0  0
 13 12  1  0  0  0  0
 15 17  1  0  0  0  0
 15  1  1  0  0  0  0
 16 15  1  0  0  0  0
 18 15  1  0  0  0  0
 19 21  1  0  0  0  0
 19 20  1  0  0  0  0
 19 22  1  0  0  0  0
M  END
