4
 OpenBabel05122313113D

 37 38  0  0  0  0  0  0  0  0999 V2000
    5.8992   -0.0571   -0.0001 S   0  0  0  0  0  0  0  0  0  0  0  0
    0.5847   -0.7633   -0.0001 N   0  0  0  0  0  0  0  0  0  0  0  0
    0.1338    1.3907   -0.0000 N   0  0  0  0  0  0  0  0  0  0  0  0
   -0.4429    0.1485    0.0000 C   0  0  0  0  0  2  0  0  0  0  0  0
    1.8161   -0.1075   -0.0001 C   0  0  0  0  0  0  0  0  0  0  0  0
    1.5257    1.2795   -0.0000 C   0  0  0  0  0  0  0  0  0  0  0  0
    3.1376   -0.5863   -0.0001 C   0  0  0  0  0  0  0  0  0  0  0  0
    3.3438   -1.6614   -0.0001 H   0  0  0  0  0  0  0  0  0  0  0  0
    4.1779    0.3619   -0.0001 C   0  0  0  0  0  0  0  0  0  0  0  0
    0.8785   -2.8674   -1.2855 C   0  0  0  0  0  0  0  0  0  0  0  0
    0.4402   -2.3733   -2.1745 H   0  0  0  0  0  0  0  0  0  0  0  0
    0.5867   -3.9356   -1.3080 H   0  0  0  0  0  0  0  0  0  0  0  0
    1.9823   -2.8171   -1.3695 H   0  0  0  0  0  0  0  0  0  0  0  0
    0.3565   -2.2216    0.0001 C   0  0  0  0  0  0  0  0  0  0  0  0
   -0.7516   -2.3021    0.0000 H   0  0  0  0  0  0  0  0  0  0  0  0
    2.5673    2.2246   -0.0000 C   0  0  0  0  0  0  0  0  0  0  0  0
    2.3697    3.3038   -0.0000 H   0  0  0  0  0  0  0  0  0  0  0  0
    3.8816    1.7536   -0.0000 C   0  0  0  0  0  0  0  0  0  0  0  0
    4.7118    2.4758   -0.0000 H   0  0  0  0  0  0  0  0  0  0  0  0
    0.8782   -2.8669    1.2861 C   0  0  0  0  0  0  0  0  0  0  0  0
    1.9820   -2.8162    1.3704 H   0  0  0  0  0  0  0  0  0  0  0  0
    0.5868   -3.9352    1.3089 H   0  0  0  0  0  0  0  0  0  0  0  0
    0.4395   -2.3726    2.1748 H   0  0  0  0  0  0  0  0  0  0  0  0
    5.8806   -1.8683   -0.0001 C   0  0  0  0  0  0  0  0  0  0  0  0
    5.3924   -2.2744    0.9086 H   0  0  0  0  0  0  0  0  0  0  0  0
    6.9431   -2.1770   -0.0001 H   0  0  0  0  0  0  0  0  0  0  0  0
    5.3924   -2.2744   -0.9087 H   0  0  0  0  0  0  0  0  0  0  0  0
   -0.6545    2.6388    0.0001 C   0  0  0  0  0  0  0  0  0  0  0  0
   -1.7037    2.2736    0.0001 H   0  0  0  0  0  0  0  0  0  0  0  0
   -0.4282    3.4380   -1.2852 C   0  0  0  0  0  0  0  0  0  0  0  0
    0.6059    3.8277   -1.3663 H   0  0  0  0  0  0  0  0  0  0  0  0
   -1.1177    4.3045   -1.3084 H   0  0  0  0  0  0  0  0  0  0  0  0
   -0.6347    2.8113   -2.1746 H   0  0  0  0  0  0  0  0  0  0  0  0
   -0.4280    3.4379    1.2854 C   0  0  0  0  0  0  0  0  0  0  0  0
   -0.6344    2.8111    2.1748 H   0  0  0  0  0  0  0  0  0  0  0  0
   -1.1175    4.3044    1.3088 H   0  0  0  0  0  0  0  0  0  0  0  0
    0.6061    3.8276    1.3664 H   0  0  0  0  0  0  0  0  0  0  0  0
  1 24  1  0  0  0  0
  1  9  1  0  0  0  0
  2  5  1  0  0  0  0
  2  4  1  0  0  0  0
  2 14  1  0  0  0  0
  3  4  1  0  0  0  0
  3 28  1  0  0  0  0
  5  6  1  0  0  0  0
  6  3  1  0  0  0  0
  7  9  1  0  0  0  0
  7  5  2  0  0  0  0
  8  7  1  0  0  0  0
  9 18  2  0  0  0  0
 10 14  1  0  0  0  0
 11 10  1  0  0  0  0
 12 10  1  0  0  0  0
 13 10  1  0  0  0  0
 14 20  1  0  0  0  0
 15 14  1  0  0  0  0
 16  6  2  0  0  0  0
 16 17  1  0  0  0  0
 18 16  1  0  0  0  0
 18 19  1  0  0  0  0
 20 22  1  0  0  0  0
 20 21  1  0  0  0  0
 20 23  1  0  0  0  0
 24 25  1  0  0  0  0
 26 24  1  0  0  0  0
 27 24  1  0  0  0  0
 28 29  1  0  0  0  0
 28 34  1  0  0  0  0
 30 28  1  0  0  0  0
 31 30  1  0  0  0  0
 32 30  1  0  0  0  0
 33 30  1  0  0  0  0
 34 36  1  0  0  0  0
 34 37  1  0  0  0  0
 34 35  1  0  0  0  0
M  END
