2
 OpenBabel05122313113D

 54 53  0  0  1  0  0  0  0  0999 V2000
    3.6650    1.9117   -0.0078 Si  0  0  0  0  0  0  0  0  0  0  0  0
   -1.7526   -0.9120   -1.8270 C   0  0  0  0  0  3  0  0  0  0  0  0
   -1.2199    0.3095   -1.2732 C   0  0  2  0  0  3  0  0  0  0  0  0
    0.2138    0.3868   -1.3920 C   0  0  0  0  0  3  0  0  0  0  0  0
   -2.0503    1.3024   -0.5060 C   0  0  0  0  0  0  0  0  0  0  0  0
   -3.5517    1.0381   -0.4144 C   0  0  0  0  0  0  0  0  0  0  0  0
   -4.3303    2.2090    0.1748 C   0  0  2  0  0  0  0  0  0  0  0  0
   -5.6716    1.8048    0.8340 C   0  0  0  0  0  0  0  0  0  0  0  0
   -6.6147    1.1076   -0.1517 C   0  0  0  0  0  0  0  0  0  0  0  0
   -5.4587    0.9934    2.1165 C   0  0  0  0  0  0  0  0  0  0  0  0
    1.0873    1.5374   -0.9361 C   0  0  2  0  0  0  0  0  0  0  0  0
    1.0453    2.6635   -1.9769 C   0  0  0  0  0  0  0  0  0  0  0  0
    2.9269    3.0933    1.2667 C   0  0  0  0  0  0  0  0  0  0  0  0
    4.6606    2.8564   -1.3077 C   0  0  0  0  0  0  0  0  0  0  0  0
    4.7688    0.5870    0.8346 C   0  0  0  0  0  0  0  0  0  0  0  0
    5.0758   -0.5293   -0.1805 C   0  0  0  0  0  0  0  0  0  0  0  0
    6.0853    1.2278    1.3125 C   0  0  0  0  0  0  0  0  0  0  0  0
    4.0107    0.0077    2.0435 C   0  0  0  0  0  0  0  0  0  0  0  0
   -1.5480    2.3076   -0.0080 O   0  0  0  0  0  0  0  0  0  0  0  0
   -4.5305    3.1228   -0.9048 O   0  0  0  0  0  0  0  0  0  0  0  0
    2.4154    1.0297   -0.7609 O   0  0  0  0  0  0  0  0  0  0  0  0
   -4.8248    3.9656   -0.5151 H   0  0  0  0  0  0  0  0  0  0  0  0
   -1.2992   -1.2691   -2.7672 H   0  0  0  0  0  0  0  0  0  0  0  0
   -2.8244   -1.1339   -1.7332 H   0  0  0  0  0  0  0  0  0  0  0  0
    0.6164   -0.0911   -2.3065 H   0  0  0  0  0  0  0  0  0  0  0  0
   -3.9437    0.8240   -1.4300 H   0  0  0  0  0  0  0  0  0  0  0  0
   -3.7120    0.1154    0.1789 H   0  0  0  0  0  0  0  0  0  0  0  0
   -3.6848    2.6765    0.9553 H   0  0  0  0  0  0  0  0  0  0  0  0
   -6.1460    2.7716    1.1267 H   0  0  0  0  0  0  0  0  0  0  0  0
   -6.6884    1.6920   -1.0901 H   0  0  0  0  0  0  0  0  0  0  0  0
   -6.2512    0.0899   -0.4072 H   0  0  0  0  0  0  0  0  0  0  0  0
   -7.6325    0.9956    0.2738 H   0  0  0  0  0  0  0  0  0  0  0  0
   -4.7902    1.5222    2.8271 H   0  0  0  0  0  0  0  0  0  0  0  0
   -6.4220    0.8070    2.6330 H   0  0  0  0  0  0  0  0  0  0  0  0
   -5.0024    0.0029    1.9078 H   0  0  0  0  0  0  0  0  0  0  0  0
    0.6962    1.9389    0.0189 H   0  0  0  0  0  0  0  0  0  0  0  0
    1.6533    3.5299   -1.6465 H   0  0  0  0  0  0  0  0  0  0  0  0
    1.4429    2.3111   -2.9505 H   0  0  0  0  0  0  0  0  0  0  0  0
    0.0054    3.0174   -2.1126 H   0  0  0  0  0  0  0  0  0  0  0  0
    2.2256    2.5609    1.9408 H   0  0  0  0  0  0  0  0  0  0  0  0
    3.7260    3.5465    1.8888 H   0  0  0  0  0  0  0  0  0  0  0  0
    2.3700    3.9218    0.7842 H   0  0  0  0  0  0  0  0  0  0  0  0
    5.0951    2.1629   -2.0562 H   0  0  0  0  0  0  0  0  0  0  0  0
    4.0223    3.5806   -1.8518 H   0  0  0  0  0  0  0  0  0  0  0  0
    5.4929    3.4225   -0.8415 H   0  0  0  0  0  0  0  0  0  0  0  0
    5.6844   -1.3331    0.2916 H   0  0  0  0  0  0  0  0  0  0  0  0
    4.1465   -0.9873   -0.5727 H   0  0  0  0  0  0  0  0  0  0  0  0
    5.6504   -0.1494   -1.0509 H   0  0  0  0  0  0  0  0  0  0  0  0
    6.7122    0.4775    1.8442 H   0  0  0  0  0  0  0  0  0  0  0  0
    6.6881    1.6198    0.4678 H   0  0  0  0  0  0  0  0  0  0  0  0
    5.9097    2.0655    2.0200 H   0  0  0  0  0  0  0  0  0  0  0  0
    4.5670   -0.8503    2.4836 H   0  0  0  0  0  0  0  0  0  0  0  0
    3.8771    0.7609    2.8464 H   0  0  0  0  0  0  0  0  0  0  0  0
    2.9981   -0.3452    1.7638 H   0  0  0  0  0  0  0  0  0  0  0  0
  1 15  1  0  0  0  0
  1 13  1  0  0  0  0
  2 24  1  0  0  0  0
  3  2  1  1  0  0  0
  3  5  1  0  0  0  0
  4  3  1  0  0  0  0
  4 11  1  0  0  0  0
  5  6  1  0  0  0  0
  5 19  2  0  0  0  0
  6  7  1  0  0  0  0
  6 27  1  0  0  0  0
  7  8  1  0  0  0  0
  7 28  1  1  0  0  0
  8 29  1  0  0  0  0
  8 10  1  0  0  0  0
  9 32  1  0  0  0  0
  9  8  1  0  0  0  0
 10 34  1  0  0  0  0
 10 33  1  0  0  0  0
 11 21  1  0  0  0  0
 11 36  1  1  0  0  0
 12 37  1  0  0  0  0
 12 11  1  0  0  0  0
 13 41  1  0  0  0  0
 13 40  1  0  0  0  0
 14 45  1  0  0  0  0
 14  1  1  0  0  0  0
 15 17  1  0  0  0  0
 15 18  1  0  0  0  0
 16 46  1  0  0  0  0
 16 15  1  0  0  0  0
 17 49  1  0  0  0  0
 17 51  1  0  0  0  0
 18 52  1  0  0  0  0
 18 53  1  0  0  0  0
 20 22  1  0  0  0  0
 20  7  1  0  0  0  0
 21  1  1  0  0  0  0
 23  2  1  0  0  0  0
 25  4  1  0  0  0  0
 26  6  1  0  0  0  0
 30  9  1  0  0  0  0
 31  9  1  0  0  0  0
 35 10  1  0  0  0  0
 38 12  1  0  0  0  0
 39 12  1  0  0  0  0
 42 13  1  0  0  0  0
 43 14  1  0  0  0  0
 44 14  1  0  0  0  0
 47 16  1  0  0  0  0
 48 16  1  0  0  0  0
 50 17  1  0  0  0  0
 54 18  1  0  0  0  0
M  END
