7
 OpenBabel05122313113D

 40 41  0  0  1  0  0  0  0  0999 V2000
   -1.3041   -3.4509    0.8474 S   0  0  0  0  0  0  0  0  0  0  0  0
   -2.1768   -1.5651   -1.4170 S   0  0  0  0  0  0  0  0  0  0  0  0
   -1.2873    3.3762    0.4561 S   0  0  0  0  0  0  0  0  0  0  0  0
   -3.4027    1.3204   -0.3625 S   0  0  0  0  0  0  0  0  0  0  0  0
    0.7394   -1.1152   -1.7087 C   0  0  0  0  0  0  0  0  0  0  0  0
    2.1367   -1.3558   -1.8736 C   0  0  0  0  0  0  0  0  0  0  0  0
    2.6221   -2.0050   -0.6829 C   0  0  0  0  0  3  0  0  0  0  0  0
    1.5180   -2.1507    0.2142 C   0  0  0  0  0  0  0  0  0  0  0  0
    0.3353   -1.6417   -0.4353 C   0  0  0  0  0  0  0  0  0  0  0  0
   -1.0818   -1.7732    0.0736 C   0  0  0  0  0  0  0  0  0  0  0  0
   -0.8559   -4.5197   -0.5500 C   0  0  0  0  0  0  0  0  0  0  0  0
   -3.7967   -2.0543   -0.7693 C   0  0  0  0  0  0  0  0  0  0  0  0
   -1.4553   -0.7244    1.2067 C   0  0  1  0  0  0  0  0  0  0  0  0
   -0.6800   -0.9833    2.4783 C   0  0  0  0  0  0  0  0  0  0  0  0
    0.3363   -0.0907    2.5940 C   0  0  0  0  0  0  0  0  0  0  0  0
    0.3297    0.8928    1.4852 C   0  0  0  0  0  3  0  0  0  0  0  0
   -1.0067    0.6924    0.8621 C   0  0  0  0  0  0  0  0  0  0  0  0
   -1.8007    1.6741    0.3311 C   0  0  0  0  0  0  0  0  0  0  0  0
   -1.6411    4.0312   -1.2078 C   0  0  0  0  0  0  0  0  0  0  0  0
   -4.4605    2.4640    0.5997 C   0  0  0  0  0  0  0  0  0  0  0  0
    0.0754   -0.6498   -2.4454 H   0  0  0  0  0  0  0  0  0  0  0  0
    2.7242   -1.1131   -2.7670 H   0  0  0  0  0  0  0  0  0  0  0  0
    3.6469   -2.3514   -0.5051 H   0  0  0  0  0  0  0  0  0  0  0  0
    1.5252   -2.6397    1.1943 H   0  0  0  0  0  0  0  0  0  0  0  0
   -1.1556   -5.5478   -0.2709 H   0  0  0  0  0  0  0  0  0  0  0  0
    0.2343   -4.4915   -0.7476 H   0  0  0  0  0  0  0  0  0  0  0  0
   -1.4088   -4.1962   -1.4552 H   0  0  0  0  0  0  0  0  0  0  0  0
   -4.4137   -2.3123   -1.6510 H   0  0  0  0  0  0  0  0  0  0  0  0
   -4.2732   -1.2212   -0.2143 H   0  0  0  0  0  0  0  0  0  0  0  0
   -3.6743   -2.9469   -0.1222 H   0  0  0  0  0  0  0  0  0  0  0  0
   -2.5556   -0.7786    1.3345 H   0  0  0  0  0  0  0  0  0  0  0  0
   -0.8779   -1.8294    3.1498 H   0  0  0  0  0  0  0  0  0  0  0  0
    1.0832   -0.0831    3.4006 H   0  0  0  0  0  0  0  0  0  0  0  0
    0.6062    1.9296    1.7227 H   0  0  0  0  0  0  0  0  0  0  0  0
   -0.7857    3.8379   -1.8825 H   0  0  0  0  0  0  0  0  0  0  0  0
   -1.7998    5.1209   -1.1013 H   0  0  0  0  0  0  0  0  0  0  0  0
   -2.5587    3.5517   -1.6028 H   0  0  0  0  0  0  0  0  0  0  0  0
   -4.5287    2.1412    1.6566 H   0  0  0  0  0  0  0  0  0  0  0  0
   -4.0648    3.4967    0.5544 H   0  0  0  0  0  0  0  0  0  0  0  0
   -5.4628    2.4235    0.1317 H   0  0  0  0  0  0  0  0  0  0  0  0
  2 12  1  0  0  0  0
  2 10  1  0  0  0  0
  4 18  1  0  0  0  0
  4 20  1  0  0  0  0
  5  9  1  0  0  0  0
  6  5  2  0  0  0  0
  6  7  1  0  0  0  0
  7 23  1  0  0  0  0
  7  8  1  0  0  0  0
  8 24  1  0  0  0  0
  9 10  1  0  0  0  0
  9  8  2  0  0  0  0
 10  1  1  0  0  0  0
 10 13  1  0  0  0  0
 11 25  1  0  0  0  0
 11  1  1  0  0  0  0
 12 29  1  0  0  0  0
 12 30  1  0  0  0  0
 13 31  1  1  0  0  0
 13 14  1  0  0  0  0
 14 15  2  0  0  0  0
 14 32  1  0  0  0  0
 15 33  1  0  0  0  0
 16 34  1  0  0  0  0
 16 15  1  0  0  0  0
 17 13  1  0  0  0  0
 17 16  1  0  0  0  0
 18  3  1  0  0  0  0
 18 17  2  0  0  0  0
 19 36  1  0  0  0  0
 19  3  1  0  0  0  0
 20 38  1  0  0  0  0
 21  5  1  0  0  0  0
 22  6  1  0  0  0  0
 26 11  1  0  0  0  0
 27 11  1  0  0  0  0
 28 12  1  0  0  0  0
 35 19  1  0  0  0  0
 37 19  1  0  0  0  0
 39 20  1  0  0  0  0
 40 20  1  0  0  0  0
M  END
