5
 OpenBabel05122313113D

 47 49  0  0  0  0  0  0  0  0999 V2000
   -1.7773   -4.5862   -0.0793 Cl  0  0  0  0  0  0  0  0  0  0  0  0
    1.7778   -4.5860    0.0799 Cl  0  0  0  0  0  0  0  0  0  0  0  0
   -1.0863   -1.9353   -0.0287 N   0  0  0  0  0  0  0  0  0  0  0  0
    1.0866   -1.9352    0.0287 N   0  0  0  0  0  0  0  0  0  0  0  0
    0.0001   -1.0753   -0.0000 C   0  0  0  0  0  2  0  0  0  0  0  0
   -2.4622   -1.5267   -0.0050 C   0  0  0  0  0  0  0  0  0  0  0  0
   -3.1631   -1.5806    1.2211 C   0  0  0  0  0  0  0  0  0  0  0  0
   -2.4997   -2.0922    2.4729 C   0  0  0  0  0  0  0  0  0  0  0  0
   -3.0629   -1.7892    3.3755 H   0  0  0  0  0  0  0  0  0  0  0  0
   -1.4606   -1.7203    2.5663 H   0  0  0  0  0  0  0  0  0  0  0  0
   -2.4478   -3.2018    2.4613 H   0  0  0  0  0  0  0  0  0  0  0  0
   -4.5035   -1.1580    1.2262 C   0  0  0  0  0  0  0  0  0  0  0  0
   -5.0572   -1.1686    2.1785 H   0  0  0  0  0  0  0  0  0  0  0  0
   -5.1514   -0.7192    0.0560 C   0  0  0  0  0  0  0  0  0  0  0  0
   -4.4297   -0.7323   -1.1519 C   0  0  0  0  0  0  0  0  0  0  0  0
   -4.9241   -0.4085   -2.0815 H   0  0  0  0  0  0  0  0  0  0  0  0
   -3.0834   -1.1327   -1.2097 C   0  0  0  0  0  0  0  0  0  0  0  0
   -2.3166   -1.1280   -2.5028 C   0  0  0  0  0  0  0  0  0  0  0  0
   -2.9670   -0.8557   -3.3544 H   0  0  0  0  0  0  0  0  0  0  0  0
   -1.8645   -2.1203   -2.7092 H   0  0  0  0  0  0  0  0  0  0  0  0
   -1.4815   -0.4010   -2.4485 H   0  0  0  0  0  0  0  0  0  0  0  0
   -6.5670   -0.2048    0.1069 C   0  0  0  0  0  0  0  0  0  0  0  0
   -7.0716   -0.2937   -0.8749 H   0  0  0  0  0  0  0  0  0  0  0  0
   -6.5773    0.8707    0.3876 H   0  0  0  0  0  0  0  0  0  0  0  0
   -7.1733   -0.7432    0.8618 H   0  0  0  0  0  0  0  0  0  0  0  0
   -0.6849   -3.2753   -0.0210 C   0  0  0  0  0  0  0  0  0  0  0  0
    0.6853   -3.2752    0.0213 C   0  0  0  0  0  0  0  0  0  0  0  0
    2.4624   -1.5264    0.0049 C   0  0  0  0  0  0  0  0  0  0  0  0
    3.0836   -1.1322    1.2095 C   0  0  0  0  0  0  0  0  0  0  0  0
    2.3168   -1.1274    2.5026 C   0  0  0  0  0  0  0  0  0  0  0  0
    2.9672   -0.8551    3.3542 H   0  0  0  0  0  0  0  0  0  0  0  0
    1.8647   -2.1197    2.7091 H   0  0  0  0  0  0  0  0  0  0  0  0
    1.4817   -0.4004    2.4483 H   0  0  0  0  0  0  0  0  0  0  0  0
    4.4299   -0.7318    1.1516 C   0  0  0  0  0  0  0  0  0  0  0  0
    4.9243   -0.4079    2.0812 H   0  0  0  0  0  0  0  0  0  0  0  0
    5.1516   -0.7187   -0.0563 C   0  0  0  0  0  0  0  0  0  0  0  0
    6.5671   -0.2043   -0.1073 C   0  0  0  0  0  0  0  0  0  0  0  0
    7.1735   -0.7429   -0.8620 H   0  0  0  0  0  0  0  0  0  0  0  0
    7.0716   -0.2929    0.8745 H   0  0  0  0  0  0  0  0  0  0  0  0
    6.5774    0.8711   -0.3884 H   0  0  0  0  0  0  0  0  0  0  0  0
    4.5036   -1.1576   -1.2265 C   0  0  0  0  0  0  0  0  0  0  0  0
    5.0573   -1.1682   -2.1788 H   0  0  0  0  0  0  0  0  0  0  0  0
    3.1633   -1.5803   -1.2213 C   0  0  0  0  0  0  0  0  0  0  0  0
    2.4998   -2.0920   -2.4731 C   0  0  0  0  0  0  0  0  0  0  0  0
    3.0630   -1.7890   -3.3756 H   0  0  0  0  0  0  0  0  0  0  0  0
    1.4607   -1.7200   -2.5665 H   0  0  0  0  0  0  0  0  0  0  0  0
    2.4480   -3.2015   -2.4614 H   0  0  0  0  0  0  0  0  0  0  0  0
  1 26  1  0  0  0  0
  3 26  1  0  0  0  0
  3  6  1  0  0  0  0
  3  5  1  0  0  0  0
  5  4  1  0  0  0  0
  6  7  1  0  0  0  0
  7 12  2  0  0  0  0
  7  8  1  0  0  0  0
  8 10  1  0  0  0  0
  8  9  1  0  0  0  0
 11  8  1  0  0  0  0
 12 13  1  0  0  0  0
 14 22  1  0  0  0  0
 14 12  1  0  0  0  0
 15 14  2  0  0  0  0
 16 15  1  0  0  0  0
 17 15  1  0  0  0  0
 17  6  2  0  0  0  0
 18 21  1  0  0  0  0
 18 17  1  0  0  0  0
 19 18  1  0  0  0  0
 20 18  1  0  0  0  0
 22 24  1  0  0  0  0
 22 25  1  0  0  0  0
 23 22  1  0  0  0  0
 26 27  2  0  0  0  0
 27  4  1  0  0  0  0
 27  2  1  0  0  0  0
 28  4  1  0  0  0  0
 28 29  1  0  0  0  0
 29 30  1  0  0  0  0
 30 32  1  0  0  0  0
 30 31  1  0  0  0  0
 33 30  1  0  0  0  0
 34 29  2  0  0  0  0
 34 35  1  0  0  0  0
 36 34  1  0  0  0  0
 37 36  1  0  0  0  0
 37 39  1  0  0  0  0
 38 37  1  0  0  0  0
 40 37  1  0  0  0  0
 41 43  1  0  0  0  0
 41 36  2  0  0  0  0
 42 41  1  0  0  0  0
 43 28  2  0  0  0  0
 44 47  1  0  0  0  0
 44 43  1  0  0  0  0
 45 44  1  0  0  0  0
 46 44  1  0  0  0  0
M  END
