5
 OpenBabel05122313113D

 29 30  0  0  1  0  0  0  0  0999 V2000
    0.3710   -0.2201    1.4925 C   0  0  0  0  0  0  0  0  0  0  0  0
    0.0608   -1.2178    0.5131 C   0  0  1  0  0  3  0  0  0  0  0  0
    1.0978   -2.1038    0.0531 C   0  0  0  0  0  0  0  0  0  0  0  0
    2.4001   -2.0343    0.5936 C   0  0  0  0  0  0  0  0  0  0  0  0
    2.7027   -1.0555    1.5922 C   0  0  0  0  0  3  0  0  0  0  0  0
    1.6968   -0.1612    2.0301 C   0  0  0  0  0  0  0  0  0  0  0  0
   -0.7416    0.6554    2.0108 C   0  0  0  0  0  0  0  0  0  0  0  0
   -1.9035    0.8976    1.0239 C   0  0  2  0  0  0  0  0  0  0  0  0
   -2.2527   -0.3775    0.2828 C   0  0  0  0  0  0  0  0  0  0  0  0
   -1.3026   -1.3119    0.0056 C   0  0  0  0  0  0  0  0  0  0  0  0
   -3.6154   -0.6020   -0.2774 C   0  0  0  0  0  0  0  0  0  0  0  0
   -5.7869    0.2922   -0.4822 C   0  0  0  0  0  0  0  0  0  0  0  0
   -1.6288    2.0187    0.0018 C   0  0  0  0  0  0  0  0  0  0  0  0
   -3.9640   -1.5758   -0.9255 O   0  0  0  0  0  0  0  0  0  0  0  0
   -4.4558    0.4261    0.0257 O   0  0  0  0  0  0  0  0  0  0  0  0
    0.8674   -2.8242   -0.7444 H   0  0  0  0  0  0  0  0  0  0  0  0
    3.1903   -2.6955    0.2128 H   0  0  0  0  0  0  0  0  0  0  0  0
    3.7252   -0.9648    1.9832 H   0  0  0  0  0  0  0  0  0  0  0  0
    1.9434    0.6218    2.7616 H   0  0  0  0  0  0  0  0  0  0  0  0
   -1.1417    0.1453    2.9171 H   0  0  0  0  0  0  0  0  0  0  0  0
   -0.3302    1.6254    2.3570 H   0  0  0  0  0  0  0  0  0  0  0  0
   -2.7862    1.2034    1.6203 H   0  0  0  0  0  0  0  0  0  0  0  0
   -1.5810   -2.1777   -0.6154 H   0  0  0  0  0  0  0  0  0  0  0  0
   -5.7808    0.2155   -1.5883 H   0  0  0  0  0  0  0  0  0  0  0  0
   -6.3317    1.1972   -0.1598 H   0  0  0  0  0  0  0  0  0  0  0  0
   -6.2731   -0.6188   -0.0781 H   0  0  0  0  0  0  0  0  0  0  0  0
   -1.3037    2.9480    0.5113 H   0  0  0  0  0  0  0  0  0  0  0  0
   -0.8365    1.7257   -0.7123 H   0  0  0  0  0  0  0  0  0  0  0  0
   -2.5486    2.2392   -0.5730 H   0  0  0  0  0  0  0  0  0  0  0  0
  1  7  1  0  0  0  0
  1  6  2  0  0  0  0
  2 10  1  1  0  0  0
  2  1  1  0  0  0  0
  3  2  1  0  0  0  0
  3  4  2  0  0  0  0
  4  5  1  0  0  0  0
  5 18  1  0  0  0  0
  5  6  1  0  0  0  0
  6 19  1  0  0  0  0
  7 21  1  0  0  0  0
  7 20  1  0  0  0  0
  8 22  1  1  0  0  0
  8  7  1  0  0  0  0
  9  8  1  0  0  0  0
 10  9  2  0  0  0  0
 11 15  1  0  0  0  0
 11  9  1  0  0  0  0
 12 25  1  0  0  0  0
 12 26  1  0  0  0  0
 12 15  1  0  0  0  0
 13 27  1  0  0  0  0
 13  8  1  0  0  0  0
 14 11  2  0  0  0  0
 16  3  1  0  0  0  0
 17  4  1  0  0  0  0
 23 10  1  0  0  0  0
 24 12  1  0  0  0  0
 28 13  1  0  0  0  0
 29 13  1  0  0  0  0
M  END
