1
 OpenBabel05122313113D

 10 10  0  0  0  0  0  0  0  0999 V2000
    3.1431   -0.1016    0.0508 C   0  0  0  0  0  2  0  0  0  0  0  0
    4.0316   -0.9707    0.6127 C   0  0  0  0  0  3  0  0  0  0  0  0
    5.4494   -0.5828    0.2360 C   0  0  0  0  0  0  0  0  0  0  0  0
    5.2141    0.8430   -0.2937 C   0  0  0  0  0  0  0  0  0  0  0  0
    3.8017    0.9326   -0.6166 O   0  0  0  0  0  0  0  0  0  0  0  0
    3.7543   -1.8923    1.1409 H   0  0  0  0  0  0  0  0  0  0  0  0
    5.8756   -1.2576   -0.5454 H   0  0  0  0  0  0  0  0  0  0  0  0
    6.1664   -0.5911    1.0838 H   0  0  0  0  0  0  0  0  0  0  0  0
    5.7936    1.1056   -1.2008 H   0  0  0  0  0  0  0  0  0  0  0  0
    5.4338    1.6028    0.4928 H   0  0  0  0  0  0  0  0  0  0  0  0
  1  2  1  0  0  0  0
  2  6  1  0  0  0  0
  3  2  1  0  0  0  0
  3  8  1  0  0  0  0
  4  3  1  0  0  0  0
  4 10  1  0  0  0  0
  5  4  1  0  0  0  0
  5  1  1  0  0  0  0
  7  3  1  0  0  0  0
  9  4  1  0  0  0  0
M  END
