2
 OpenBabel05122313113D

 22 22  0  0  0  0  0  0  0  0999 V2000
   -1.8199   -0.8082    1.6891 N   0  0  0  0  0  0  0  0  0  0  0  0
   -2.0473   -0.8558   -1.1205 C   0  0  0  0  0  3  0  0  0  0  0  0
   -2.2221   -0.7639   -2.2101 H   0  0  0  0  0  0  0  0  0  0  0  0
   -1.8584   -1.9241   -0.8960 H   0  0  0  0  0  0  0  0  0  0  0  0
   -3.1273   -0.2590   -0.3180 C   0  0  0  0  0  0  0  0  0  0  0  0
   -3.0073   -0.1869    1.1056 C   0  0  0  0  0  0  0  0  0  0  0  0
   -3.9610    0.4919    1.8810 C   0  0  0  0  0  0  0  0  0  0  0  0
   -3.8525    0.5439    2.9725 H   0  0  0  0  0  0  0  0  0  0  0  0
   -5.0580    1.1259    1.2737 C   0  0  0  0  0  0  0  0  0  0  0  0
   -5.7921    1.6627    1.8923 H   0  0  0  0  0  0  0  0  0  0  0  0
   -5.2024    1.0644   -0.1205 C   0  0  0  0  0  0  0  0  0  0  0  0
   -6.0600    1.5514   -0.6100 H   0  0  0  0  0  0  0  0  0  0  0  0
   -4.2568    0.3790   -0.8932 C   0  0  0  0  0  0  0  0  0  0  0  0
   -4.3794    0.3264   -1.9871 H   0  0  0  0  0  0  0  0  0  0  0  0
   -1.9454   -2.2846    1.7490 C   0  0  0  0  0  0  0  0  0  0  0  0
   -2.6479   -2.5799    2.5608 H   0  0  0  0  0  0  0  0  0  0  0  0
   -0.9479   -2.7295    1.9292 H   0  0  0  0  0  0  0  0  0  0  0  0
   -2.3407   -2.6756    0.7974 H   0  0  0  0  0  0  0  0  0  0  0  0
   -1.5068   -0.3335    3.0460 C   0  0  0  0  0  0  0  0  0  0  0  0
   -1.4395    0.7672    3.0673 H   0  0  0  0  0  0  0  0  0  0  0  0
   -0.5382   -0.7599    3.3553 H   0  0  0  0  0  0  0  0  0  0  0  0
   -2.2763   -0.6650    3.7801 H   0  0  0  0  0  0  0  0  0  0  0  0
  1 15  1  0  0  0  0
  1 19  1  0  0  0  0
  2  4  1  0  0  0  0
  2  5  1  0  0  0  0
  3  2  1  0  0  0  0
  5  6  1  0  0  0  0
  6  1  1  0  0  0  0
  6  7  2  0  0  0  0
  7  8  1  0  0  0  0
  9  7  1  0  0  0  0
  9 10  1  0  0  0  0
 11  9  2  0  0  0  0
 12 11  1  0  0  0  0
 13  5  2  0  0  0  0
 13 11  1  0  0  0  0
 14 13  1  0  0  0  0
 15 17  1  0  0  0  0
 15 16  1  0  0  0  0
 18 15  1  0  0  0  0
 19 20  1  0  0  0  0
 19 21  1  0  0  0  0
 19 22  1  0  0  0  0
M  END
