7
 OpenBabel05122313113D

 33 33  0  0  1  0  0  0  0  0999 V2000
   -2.3667   -1.2394    0.3313 N   0  0  0  0  0  0  0  0  0  0  0  0
   -2.1947   -1.3789   -1.0251 C   0  0  0  0  0  0  0  0  0  0  0  0
   -2.2282   -0.1038   -1.6559 C   0  0  0  0  0  0  0  0  0  0  0  0
   -2.1637    0.1068   -2.7313 H   0  0  0  0  0  0  0  0  0  0  0  0
   -2.5059    0.8468   -0.6255 C   0  0  0  0  0  0  0  0  0  0  0  0
   -2.6249    1.9302   -0.7504 H   0  0  0  0  0  0  0  0  0  0  0  0
   -2.5969    0.1021    0.5752 C   0  0  1  0  0  3  0  0  0  0  0  0
   -2.2771   -2.7465   -1.6956 C   0  0  0  0  0  0  0  0  0  0  0  0
   -3.7772   -2.9887   -2.0025 C   0  0  0  0  0  0  0  0  0  0  0  0
   -4.3731   -2.9669   -1.0683 H   0  0  0  0  0  0  0  0  0  0  0  0
   -3.9238   -3.9763   -2.4885 H   0  0  0  0  0  0  0  0  0  0  0  0
   -4.1752   -2.2055   -2.6787 H   0  0  0  0  0  0  0  0  0  0  0  0
   -1.7937   -3.8634   -0.7553 C   0  0  0  0  0  0  0  0  0  0  0  0
   -0.7108   -3.7780   -0.5412 H   0  0  0  0  0  0  0  0  0  0  0  0
   -1.9680   -4.8566   -1.2170 H   0  0  0  0  0  0  0  0  0  0  0  0
   -2.3321   -3.8178    0.2103 H   0  0  0  0  0  0  0  0  0  0  0  0
   -1.4862   -2.7709   -3.0152 C   0  0  0  0  0  0  0  0  0  0  0  0
   -1.8688   -2.0145   -3.7303 H   0  0  0  0  0  0  0  0  0  0  0  0
   -1.5791   -3.7622   -3.5043 H   0  0  0  0  0  0  0  0  0  0  0  0
   -0.4117   -2.5678   -2.8431 H   0  0  0  0  0  0  0  0  0  0  0  0
   -2.9999    0.5682    1.9714 C   0  0  0  0  0  0  0  0  0  0  0  0
   -3.3541    2.0621    1.9617 C   0  0  0  0  0  0  0  0  0  0  0  0
   -4.2002    2.2660    1.2751 H   0  0  0  0  0  0  0  0  0  0  0  0
   -2.4964    2.6815    1.6351 H   0  0  0  0  0  0  0  0  0  0  0  0
   -3.6524    2.3933    2.9774 H   0  0  0  0  0  0  0  0  0  0  0  0
   -1.8407    0.3144    2.9545 C   0  0  0  0  0  0  0  0  0  0  0  0
   -2.1167    0.5947    3.9926 H   0  0  0  0  0  0  0  0  0  0  0  0
   -0.9400    0.9137    2.6876 H   0  0  0  0  0  0  0  0  0  0  0  0
   -1.5743   -0.7620    2.9543 H   0  0  0  0  0  0  0  0  0  0  0  0
   -4.2277   -0.2531    2.4196 C   0  0  0  0  0  0  0  0  0  0  0  0
   -5.0826   -0.0815    1.7348 H   0  0  0  0  0  0  0  0  0  0  0  0
   -4.5405    0.0371    3.4445 H   0  0  0  0  0  0  0  0  0  0  0  0
   -3.9965   -1.3358    2.4071 H   0  0  0  0  0  0  0  0  0  0  0  0
  1  7  1  0  0  0  0
  2  1  2  0  0  0  0
  3  2  1  0  0  0  0
  3  5  2  0  0  0  0
  4  3  1  0  0  0  0
  5  7  1  0  0  0  0
  6  5  1  0  0  0  0
  7 21  1  6  0  0  0
  8  2  1  0  0  0  0
  8 13  1  0  0  0  0
  9  8  1  0  0  0  0
  9 10  1  0  0  0  0
 11  9  1  0  0  0  0
 12  9  1  0  0  0  0
 13 14  1  0  0  0  0
 13 16  1  0  0  0  0
 15 13  1  0  0  0  0
 17 20  1  0  0  0  0
 17  8  1  0  0  0  0
 18 17  1  0  0  0  0
 19 17  1  0  0  0  0
 21 30  1  0  0  0  0
 21 26  1  0  0  0  0
 22 21  1  0  0  0  0
 22 25  1  0  0  0  0
 23 22  1  0  0  0  0
 24 22  1  0  0  0  0
 26 27  1  0  0  0  0
 28 26  1  0  0  0  0
 29 26  1  0  0  0  0
 30 32  1  0  0  0  0
 31 30  1  0  0  0  0
 33 30  1  0  0  0  0
M  END
