1
 OpenBabel05122313113D

 20 20  0  0  0  0  0  0  0  0999 V2000
   -0.3131    0.7113   -0.0236 C   0  0  0  0  0  2  0  0  0  0  0  0
   -0.3199    2.0490   -0.0637 O   0  0  0  0  0  0  0  0  0  0  0  0
    0.8783    2.8511   -0.0964 C   0  0  0  0  0  0  0  0  0  0  0  0
    0.4643    4.2953    0.1043 C   0  0  0  0  0  0  0  0  0  0  0  0
   -1.7626    0.3166   -0.0012 C   0  0  0  0  0  0  0  0  0  0  0  0
   -2.5455    0.4564   -1.1669 C   0  0  0  0  0  0  0  0  0  0  0  0
   -3.8960    0.0786   -1.1647 C   0  0  0  0  0  0  0  0  0  0  0  0
   -4.4904   -0.4153    0.0081 C   0  0  0  0  0  0  0  0  0  0  0  0
   -3.7252   -0.5254    1.1801 C   0  0  0  0  0  0  0  0  0  0  0  0
   -2.3691   -0.1657    1.1757 C   0  0  0  0  0  0  0  0  0  0  0  0
   -2.0801    0.8526   -2.0823 H   0  0  0  0  0  0  0  0  0  0  0  0
   -4.4916    0.1773   -2.0853 H   0  0  0  0  0  0  0  0  0  0  0  0
   -5.5511   -0.7082    0.0100 H   0  0  0  0  0  0  0  0  0  0  0  0
   -4.1884   -0.8932    2.1085 H   0  0  0  0  0  0  0  0  0  0  0  0
   -1.7669   -0.2463    2.0932 H   0  0  0  0  0  0  0  0  0  0  0  0
    1.5703    2.5070    0.6981 H   0  0  0  0  0  0  0  0  0  0  0  0
    1.3781    2.6986   -1.0738 H   0  0  0  0  0  0  0  0  0  0  0  0
   -0.2397    4.6209   -0.6869 H   0  0  0  0  0  0  0  0  0  0  0  0
    1.3568    4.9506    0.0673 H   0  0  0  0  0  0  0  0  0  0  0  0
   -0.0292    4.4341    1.0863 H   0  0  0  0  0  0  0  0  0  0  0  0
  1  5  1  0  0  0  0
  2  1  1  0  0  0  0
  3  2  1  0  0  0  0
  3  4  1  0  0  0  0
  3 16  1  0  0  0  0
  4 20  1  0  0  0  0
  5 10  1  0  0  0  0
  6  7  1  0  0  0  0
  6  5  2  0  0  0  0
  7  8  2  0  0  0  0
  8 13  1  0  0  0  0
  8  9  1  0  0  0  0
  9 14  1  0  0  0  0
 10  9  2  0  0  0  0
 10 15  1  0  0  0  0
 11  6  1  0  0  0  0
 12  7  1  0  0  0  0
 17  3  1  0  0  0  0
 18  4  1  0  0  0  0
 19  4  1  0  0  0  0
M  END
