5
 OpenBabel05122313113D

 17 17  0  0  0  0  0  0  0  0999 V2000
   -2.2765    1.1107    1.0753 N   0  0  0  0  0  0  0  0  0  0  0  0
   -2.1184    1.3356   -1.0841 N   0  0  0  0  0  0  0  0  0  0  0  0
   -5.0272    2.9239    2.3753 N   0  0  0  0  0  0  0  0  0  0  0  0
   -4.6820    3.4377   -2.3506 N   0  0  0  0  0  0  0  0  0  0  0  0
   -1.5343    0.7217   -0.0086 C   0  0  0  0  0  2  0  0  0  0  0  0
   -3.3289    1.9354    0.6895 C   0  0  0  0  0  0  0  0  0  0  0  0
   -3.2278    2.0813   -0.6924 C   0  0  0  0  0  0  0  0  0  0  0  0
   -2.1158    0.5731    2.4196 C   0  0  0  0  0  0  0  0  0  0  0  0
   -2.1663    1.3894    3.1650 H   0  0  0  0  0  0  0  0  0  0  0  0
   -1.1409    0.0560    2.4593 H   0  0  0  0  0  0  0  0  0  0  0  0
   -2.9101   -0.1730    2.6187 H   0  0  0  0  0  0  0  0  0  0  0  0
   -1.7027    1.1181   -2.4627 C   0  0  0  0  0  0  0  0  0  0  0  0
   -1.6258    0.0266   -2.6367 H   0  0  0  0  0  0  0  0  0  0  0  0
   -0.7228    1.5975   -2.6474 H   0  0  0  0  0  0  0  0  0  0  0  0
   -2.4566    1.5559   -3.1414 H   0  0  0  0  0  0  0  0  0  0  0  0
   -4.2667    2.4813    1.5969 C   0  0  0  0  0  0  0  0  0  0  0  0
   -4.0325    2.8266   -1.5855 C   0  0  0  0  0  0  0  0  0  0  0  0
  1  8  1  0  0  0  0
  2  7  1  0  0  0  0
  2  5  1  0  0  0  0
  4 17  3  0  0  0  0
  5  1  1  0  0  0  0
  6  1  1  0  0  0  0
  6 16  1  0  0  0  0
  7  6  2  0  0  0  0
  8 10  1  0  0  0  0
  8 11  1  0  0  0  0
  8  9  1  0  0  0  0
 12  2  1  0  0  0  0
 13 12  1  0  0  0  0
 14 12  1  0  0  0  0
 15 12  1  0  0  0  0
 16  3  3  0  0  0  0
 17  7  1  0  0  0  0
M  END
