6
 OpenBabel05122313113D

 47 48  0  0  0  0  0  0  0  0999 V2000
    0.9255   -0.7588   -0.2182 N   0  0  0  0  0  0  0  0  0  0  0  0
    0.9990   -2.2119   -0.2529 C   0  0  0  0  0  0  0  0  0  0  0  0
   -0.0422   -2.5878   -0.2422 H   0  0  0  0  0  0  0  0  0  0  0  0
    1.5324   -2.5877    0.6403 H   0  0  0  0  0  0  0  0  0  0  0  0
    1.5314   -2.5562   -1.1597 H   0  0  0  0  0  0  0  0  0  0  0  0
   -0.2570   -0.0681   -0.1544 C   0  0  0  0  0  2  0  0  0  0  0  0
    0.0806    1.2562   -0.0414 N   0  0  0  0  0  0  0  0  0  0  0  0
   -0.9031    2.3159    0.1222 C   0  0  0  0  0  0  0  0  0  0  0  0
   -1.8987    1.8303    0.1181 H   0  0  0  0  0  0  0  0  0  0  0  0
   -0.8287    3.0518   -0.7014 H   0  0  0  0  0  0  0  0  0  0  0  0
   -0.7485    2.8371    1.0853 H   0  0  0  0  0  0  0  0  0  0  0  0
    1.4676    1.4098   -0.0162 C   0  0  0  0  0  0  0  0  0  0  0  0
    2.2939    2.5550    0.0970 C   0  0  0  0  0  0  0  0  0  0  0  0
    1.6776    3.7656    0.2081 O   0  0  0  0  0  0  0  0  0  0  0  0
    2.4880    4.9316    0.3309 C   0  0  0  0  0  0  0  0  0  0  0  0
    3.1646    5.0136   -0.5530 H   0  0  0  0  0  0  0  0  0  0  0  0
    3.1299    4.8507    1.2386 H   0  0  0  0  0  0  0  0  0  0  0  0
    1.5709    6.1413    0.4196 C   0  0  0  0  0  0  0  0  0  0  0  0
    2.2054    7.0336    0.6130 H   0  0  0  0  0  0  0  0  0  0  0  0
    0.9173    6.0264    1.3120 H   0  0  0  0  0  0  0  0  0  0  0  0
    0.7135    6.3679   -0.8297 C   0  0  0  0  0  0  0  0  0  0  0  0
    0.1200    5.4497   -1.0258 H   0  0  0  0  0  0  0  0  0  0  0  0
    1.3820    6.4899   -1.7111 H   0  0  0  0  0  0  0  0  0  0  0  0
   -0.2164    7.5748   -0.7099 C   0  0  0  0  0  0  0  0  0  0  0  0
   -0.9179    7.4593    0.1426 H   0  0  0  0  0  0  0  0  0  0  0  0
   -0.8248    7.7149   -1.6257 H   0  0  0  0  0  0  0  0  0  0  0  0
    0.3544    8.5120   -0.5411 H   0  0  0  0  0  0  0  0  0  0  0  0
    3.6785    2.3315    0.0877 C   0  0  0  0  0  0  0  0  0  0  0  0
    4.3714    3.1779    0.1750 H   0  0  0  0  0  0  0  0  0  0  0  0
    4.2245    1.0291   -0.0315 C   0  0  0  0  0  0  0  0  0  0  0  0
    5.3167    0.9229   -0.0328 H   0  0  0  0  0  0  0  0  0  0  0  0
    3.4095   -0.1067   -0.1453 C   0  0  0  0  0  0  0  0  0  0  0  0
    3.8402   -1.3947   -0.2676 O   0  0  0  0  0  0  0  0  0  0  0  0
    5.2417   -1.6424   -0.2506 C   0  0  0  0  0  0  0  0  0  0  0  0
    5.6847   -1.2571    0.6983 H   0  0  0  0  0  0  0  0  0  0  0  0
    5.7358   -1.0968   -1.0896 H   0  0  0  0  0  0  0  0  0  0  0  0
    5.4638   -3.1409   -0.3791 C   0  0  0  0  0  0  0  0  0  0  0  0
    4.9822   -3.4928   -1.3173 H   0  0  0  0  0  0  0  0  0  0  0  0
    4.9333   -3.6516    0.4536 H   0  0  0  0  0  0  0  0  0  0  0  0
    6.9464   -3.5244   -0.3729 C   0  0  0  0  0  0  0  0  0  0  0  0
    7.4181   -3.1540    0.5644 H   0  0  0  0  0  0  0  0  0  0  0  0
    7.4673   -2.9943   -1.2012 H   0  0  0  0  0  0  0  0  0  0  0  0
    7.1763   -5.0305   -0.5024 C   0  0  0  0  0  0  0  0  0  0  0  0
    6.6977   -5.5839    0.3320 H   0  0  0  0  0  0  0  0  0  0  0  0
    8.2558   -5.2810   -0.4949 H   0  0  0  0  0  0  0  0  0  0  0  0
    6.7473   -5.4235   -1.4475 H   0  0  0  0  0  0  0  0  0  0  0  0
    2.0105    0.1149   -0.1320 C   0  0  0  0  0  0  0  0  0  0  0  0
  1  6  1  0  0  0  0
  1 47  1  0  0  0  0
  2  3  1  0  0  0  0
  2  1  1  0  0  0  0
  2  4  1  0  0  0  0
  5  2  1  0  0  0  0
  6  7  1  0  0  0  0
  7 12  1  0  0  0  0
  7  8  1  0  0  0  0
  8 11  1  0  0  0  0
  9  8  1  0  0  0  0
 10  8  1  0  0  0  0
 12 13  1  0  0  0  0
 13 14  1  0  0  0  0
 14 15  1  0  0  0  0
 15 18  1  0  0  0  0
 15 17  1  0  0  0  0
 16 15  1  0  0  0  0
 18 19  1  0  0  0  0
 18 20  1  0  0  0  0
 21 24  1  0  0  0  0
 21 18  1  0  0  0  0
 22 21  1  0  0  0  0
 23 21  1  0  0  0  0
 24 27  1  0  0  0  0
 24 25  1  0  0  0  0
 26 24  1  0  0  0  0
 28 13  2  0  0  0  0
 28 29  1  0  0  0  0
 30 28  1  0  0  0  0
 31 30  1  0  0  0  0
 32 47  1  0  0  0  0
 32 30  2  0  0  0  0
 33 34  1  0  0  0  0
 33 32  1  0  0  0  0
 34 35  1  0  0  0  0
 36 34  1  0  0  0  0
 37 40  1  0  0  0  0
 37 34  1  0  0  0  0
 37 39  1  0  0  0  0
 38 37  1  0  0  0  0
 40 41  1  0  0  0  0
 42 40  1  0  0  0  0
 43 45  1  0  0  0  0
 43 40  1  0  0  0  0
 43 44  1  0  0  0  0
 46 43  1  0  0  0  0
 47 12  2  0  0  0  0
M  END
