3
 OpenBabel05122313113D

 73 75  0  0  0  0  0  0  0  0999 V2000
    6.3805    0.0938    0.3138 O   0  0  0  0  0  0  0  0  0  0  0  0
    1.0834    0.2387   -1.4496 N   0  0  0  0  0  0  0  0  0  0  0  0
    0.0001    0.1513   -0.6143 C   0  0  0  0  0  2  0  0  0  0  0  0
    0.6852    0.3765   -2.7763 C   0  0  0  0  0  0  0  0  0  0  0  0
    2.4501    0.1753   -1.0055 C   0  0  0  0  0  0  0  0  0  0  0  0
    3.0638   -1.0881   -0.8696 C   0  0  0  0  0  0  0  0  0  0  0  0
    4.3981   -1.1342   -0.4240 C   0  0  0  0  0  0  0  0  0  0  0  0
    5.0938    0.0506   -0.1226 C   0  0  0  0  0  0  0  0  0  0  0  0
    4.4523    1.2975   -0.2643 C   0  0  0  0  0  0  0  0  0  0  0  0
    3.1258    1.3841   -0.6998 C   0  0  0  0  0  0  0  0  0  0  0  0
    2.3114   -2.3849   -1.1436 C   0  0  0  0  0  0  0  0  0  0  0  0
    2.0249   -3.1331    0.1702 C   0  0  0  0  0  0  0  0  0  0  0  0
    3.0401   -3.2754   -2.1623 C   0  0  0  0  0  0  0  0  0  0  0  0
    7.0644   -1.1282    0.5194 C   0  0  0  0  0  0  0  0  0  0  0  0
    2.4189    2.7327   -0.7623 C   0  0  0  0  0  0  0  0  0  0  0  0
    2.0200    3.1846    0.6548 C   0  0  0  0  0  0  0  0  0  0  0  0
    3.2456    3.8037   -1.4886 C   0  0  0  0  0  0  0  0  0  0  0  0
    1.4128    0.4606   -3.5881 H   0  0  0  0  0  0  0  0  0  0  0  0
    4.8823   -2.1122   -0.3057 H   0  0  0  0  0  0  0  0  0  0  0  0
    5.0243    2.1993   -0.0043 H   0  0  0  0  0  0  0  0  0  0  0  0
    1.3305   -2.1147   -1.5855 H   0  0  0  0  0  0  0  0  0  0  0  0
    1.4686   -2.4868    0.8799 H   0  0  0  0  0  0  0  0  0  0  0  0
    2.9660   -3.4507    0.6648 H   0  0  0  0  0  0  0  0  0  0  0  0
    1.4174   -4.0413   -0.0220 H   0  0  0  0  0  0  0  0  0  0  0  0
    4.0181   -3.6276   -1.7738 H   0  0  0  0  0  0  0  0  0  0  0  0
    3.2304   -2.7370   -3.1127 H   0  0  0  0  0  0  0  0  0  0  0  0
    2.4350   -4.1762   -2.3911 H   0  0  0  0  0  0  0  0  0  0  0  0
    7.1645   -1.7122   -0.4233 H   0  0  0  0  0  0  0  0  0  0  0  0
    6.5576   -1.7632    1.2801 H   0  0  0  0  0  0  0  0  0  0  0  0
    8.0734   -0.8641    0.8862 H   0  0  0  0  0  0  0  0  0  0  0  0
    1.4809    2.5922   -1.3387 H   0  0  0  0  0  0  0  0  0  0  0  0
    1.4386    4.1287    0.6167 H   0  0  0  0  0  0  0  0  0  0  0  0
    2.9189    3.3580    1.2814 H   0  0  0  0  0  0  0  0  0  0  0  0
    1.4011    2.4142    1.1591 H   0  0  0  0  0  0  0  0  0  0  0  0
    3.5334    3.4772   -2.5084 H   0  0  0  0  0  0  0  0  0  0  0  0
    4.1768    4.0474   -0.9372 H   0  0  0  0  0  0  0  0  0  0  0  0
    2.6643    4.7437   -1.5780 H   0  0  0  0  0  0  0  0  0  0  0  0
   -6.3805    0.0939    0.3136 O   0  0  0  0  0  0  0  0  0  0  0  0
   -1.0833    0.2386   -1.4496 N   0  0  0  0  0  0  0  0  0  0  0  0
   -0.6851    0.3765   -2.7763 C   0  0  0  0  0  0  0  0  0  0  0  0
   -2.4499    0.1752   -1.0055 C   0  0  0  0  0  0  0  0  0  0  0  0
   -3.0637   -1.0881   -0.8693 C   0  0  0  0  0  0  0  0  0  0  0  0
   -4.3979   -1.1341   -0.4238 C   0  0  0  0  0  0  0  0  0  0  0  0
   -5.0937    0.0507   -0.1226 C   0  0  0  0  0  0  0  0  0  0  0  0
   -4.4522    1.2976   -0.2645 C   0  0  0  0  0  0  0  0  0  0  0  0
   -3.1257    1.3841   -0.6999 C   0  0  0  0  0  0  0  0  0  0  0  0
   -2.3114   -2.3850   -1.1432 C   0  0  0  0  0  0  0  0  0  0  0  0
   -2.0261   -3.1339    0.1705 C   0  0  0  0  0  0  0  0  0  0  0  0
   -3.0394   -3.2748   -2.1630 C   0  0  0  0  0  0  0  0  0  0  0  0
   -7.0643   -1.1281    0.5194 C   0  0  0  0  0  0  0  0  0  0  0  0
   -2.4189    2.7327   -0.7625 C   0  0  0  0  0  0  0  0  0  0  0  0
   -2.0200    3.1846    0.6545 C   0  0  0  0  0  0  0  0  0  0  0  0
   -3.2455    3.8037   -1.4890 C   0  0  0  0  0  0  0  0  0  0  0  0
   -1.4127    0.4606   -3.5881 H   0  0  0  0  0  0  0  0  0  0  0  0
   -4.8821   -2.1122   -0.3053 H   0  0  0  0  0  0  0  0  0  0  0  0
   -5.0243    2.1994   -0.0047 H   0  0  0  0  0  0  0  0  0  0  0  0
   -1.3300   -2.1148   -1.5841 H   0  0  0  0  0  0  0  0  0  0  0  0
   -1.4705   -2.4881    0.8810 H   0  0  0  0  0  0  0  0  0  0  0  0
   -2.9677   -3.4517    0.6641 H   0  0  0  0  0  0  0  0  0  0  0  0
   -1.4186   -4.0421   -0.0217 H   0  0  0  0  0  0  0  0  0  0  0  0
   -4.0179   -3.6266   -1.7756 H   0  0  0  0  0  0  0  0  0  0  0  0
   -3.2285   -2.7359   -3.1134 H   0  0  0  0  0  0  0  0  0  0  0  0
   -2.4344   -4.1758   -2.3916 H   0  0  0  0  0  0  0  0  0  0  0  0
   -7.1643   -1.7122   -0.4231 H   0  0  0  0  0  0  0  0  0  0  0  0
   -6.5576   -1.7629    1.2803 H   0  0  0  0  0  0  0  0  0  0  0  0
   -8.0734   -0.8640    0.8861 H   0  0  0  0  0  0  0  0  0  0  0  0
   -1.4808    2.5921   -1.3388 H   0  0  0  0  0  0  0  0  0  0  0  0
   -1.4386    4.1287    0.6164 H   0  0  0  0  0  0  0  0  0  0  0  0
   -2.9190    3.3582    1.2811 H   0  0  0  0  0  0  0  0  0  0  0  0
   -1.4012    2.4144    1.1590 H   0  0  0  0  0  0  0  0  0  0  0  0
   -3.5331    3.4771   -2.5088 H   0  0  0  0  0  0  0  0  0  0  0  0
   -4.1767    4.0474   -0.9377 H   0  0  0  0  0  0  0  0  0  0  0  0
   -2.6641    4.7437   -1.5784 H   0  0  0  0  0  0  0  0  0  0  0  0
  1 14  1  0  0  0  0
  2  5  1  0  0  0  0
  2  3  1  0  0  0  0
  4 40  2  0  0  0  0
  4  2  1  0  0  0  0
  5  6  2  0  0  0  0
  5 10  1  0  0  0  0
  6  7  1  0  0  0  0
  7 19  1  0  0  0  0
  7  8  2  0  0  0  0
  8  1  1  0  0  0  0
  9  8  1  0  0  0  0
  9 20  1  0  0  0  0
 10  9  2  0  0  0  0
 11  6  1  0  0  0  0
 11 12  1  0  0  0  0
 12 23  1  0  0  0  0
 12 22  1  0  0  0  0
 13 25  1  0  0  0  0
 13 11  1  0  0  0  0
 14 30  1  0  0  0  0
 14 29  1  0  0  0  0
 15 10  1  0  0  0  0
 15 16  1  0  0  0  0
 16 34  1  0  0  0  0
 16 33  1  0  0  0  0
 17 36  1  0  0  0  0
 17 15  1  0  0  0  0
 18  4  1  0  0  0  0
 21 11  1  0  0  0  0
 24 12  1  0  0  0  0
 26 13  1  0  0  0  0
 27 13  1  0  0  0  0
 28 14  1  0  0  0  0
 31 15  1  0  0  0  0
 32 16  1  0  0  0  0
 35 17  1  0  0  0  0
 37 17  1  0  0  0  0
 38 50  1  0  0  0  0
 39 41  1  0  0  0  0
 39  3  1  0  0  0  0
 40 39  1  0  0  0  0
 41 42  2  0  0  0  0
 41 46  1  0  0  0  0
 42 43  1  0  0  0  0
 43 55  1  0  0  0  0
 43 44  2  0  0  0  0
 44 38  1  0  0  0  0
 45 44  1  0  0  0  0
 45 56  1  0  0  0  0
 46 45  2  0  0  0  0
 47 42  1  0  0  0  0
 47 48  1  0  0  0  0
 48 59  1  0  0  0  0
 48 58  1  0  0  0  0
 49 61  1  0  0  0  0
 49 47  1  0  0  0  0
 50 66  1  0  0  0  0
 50 65  1  0  0  0  0
 51 46  1  0  0  0  0
 51 52  1  0  0  0  0
 52 70  1  0  0  0  0
 52 69  1  0  0  0  0
 53 72  1  0  0  0  0
 53 51  1  0  0  0  0
 54 40  1  0  0  0  0
 57 47  1  0  0  0  0
 60 48  1  0  0  0  0
 62 49  1  0  0  0  0
 63 49  1  0  0  0  0
 64 50  1  0  0  0  0
 67 51  1  0  0  0  0
 68 52  1  0  0  0  0
 71 53  1  0  0  0  0
 73 53  1  0  0  0  0
M  END
