5
 OpenBabel05122313113D

 75 77  0  0  0  0  0  0  0  0999 V2000
   -6.4014    0.5407   -0.5324 O   0  0  0  0  0  0  0  0  0  0  0  0
    6.3689    0.5276   -0.6295 O   0  0  0  0  0  0  0  0  0  0  0  0
   -1.0973    0.1834    1.2008 N   0  0  0  0  0  0  0  0  0  0  0  0
    1.0888    0.1416    1.1917 N   0  0  0  0  0  0  0  0  0  0  0  0
   -0.0116    0.0136    0.4032 C   0  0  0  0  0  2  0  0  0  0  0  0
   -0.7562    0.3134    2.6313 C   0  0  0  0  0  0  0  0  0  0  0  0
    0.7649    0.5082    2.5866 C   0  0  0  0  0  0  0  0  0  0  0  0
   -2.4571    0.2279    0.7607 C   0  0  0  0  0  0  0  0  0  0  0  0
   -3.2036   -0.9637    0.6148 C   0  0  0  0  0  0  0  0  0  0  0  0
   -4.5394   -0.8777    0.1798 C   0  0  0  0  0  0  0  0  0  0  0  0
   -5.1226    0.3701   -0.0993 C   0  0  0  0  0  0  0  0  0  0  0  0
   -4.3677    1.5478    0.0645 C   0  0  0  0  0  0  0  0  0  0  0  0
   -3.0373    1.4987    0.4921 C   0  0  0  0  0  0  0  0  0  0  0  0
   -2.5955   -2.3259    0.9205 C   0  0  0  0  0  0  0  0  0  0  0  0
   -3.0284   -2.8218    2.3129 C   0  0  0  0  0  0  0  0  0  0  0  0
   -2.9180   -3.3711   -0.1579 C   0  0  0  0  0  0  0  0  0  0  0  0
   -2.2114    2.7772    0.5901 C   0  0  0  0  0  0  0  0  0  0  0  0
   -3.0070    3.9722    1.1322 C   0  0  0  0  0  0  0  0  0  0  0  0
   -1.5636    3.1057   -0.7681 C   0  0  0  0  0  0  0  0  0  0  0  0
   -7.1928   -0.6096   -0.7578 C   0  0  0  0  0  0  0  0  0  0  0  0
    2.4367    0.2081    0.7132 C   0  0  0  0  0  0  0  0  0  0  0  0
    2.9810    1.4682    0.3397 C   0  0  0  0  0  0  0  0  0  0  0  0
    4.3091    1.5199   -0.0980 C   0  0  0  0  0  0  0  0  0  0  0  0
    5.0951    0.3560   -0.1809 C   0  0  0  0  0  0  0  0  0  0  0  0
    4.5426   -0.8844    0.1841 C   0  0  0  0  0  0  0  0  0  0  0  0
    3.2137   -0.9726    0.6382 C   0  0  0  0  0  0  0  0  0  0  0  0
    2.1663    2.7558    0.4103 C   0  0  0  0  0  0  0  0  0  0  0  0
    2.6484    3.6481    1.5695 C   0  0  0  0  0  0  0  0  0  0  0  0
    2.1769    3.5337   -0.9151 C   0  0  0  0  0  0  0  0  0  0  0  0
    2.6438   -2.3212    1.0598 C   0  0  0  0  0  0  0  0  0  0  0  0
    2.9895   -2.6246    2.5303 C   0  0  0  0  0  0  0  0  0  0  0  0
    3.0901   -3.4754    0.1516 C   0  0  0  0  0  0  0  0  0  0  0  0
    7.1917   -0.6143   -0.7681 C   0  0  0  0  0  0  0  0  0  0  0  0
   -1.0536   -0.6103    3.1744 H   0  0  0  0  0  0  0  0  0  0  0  0
   -1.2975    1.1642    3.0916 H   0  0  0  0  0  0  0  0  0  0  0  0
    1.0682    1.5588    2.7861 H   0  0  0  0  0  0  0  0  0  0  0  0
    1.3098   -0.1402    3.3003 H   0  0  0  0  0  0  0  0  0  0  0  0
   -5.1147   -1.8033    0.0510 H   0  0  0  0  0  0  0  0  0  0  0  0
   -4.8564    2.5030   -0.1720 H   0  0  0  0  0  0  0  0  0  0  0  0
   -1.4949   -2.1915    0.9298 H   0  0  0  0  0  0  0  0  0  0  0  0
   -4.1273   -2.9731    2.3534 H   0  0  0  0  0  0  0  0  0  0  0  0
   -2.7672   -2.0963    3.1097 H   0  0  0  0  0  0  0  0  0  0  0  0
   -2.5431   -3.7896    2.5558 H   0  0  0  0  0  0  0  0  0  0  0  0
   -2.6917   -2.9848   -1.1702 H   0  0  0  0  0  0  0  0  0  0  0  0
   -3.9868   -3.6701   -0.1346 H   0  0  0  0  0  0  0  0  0  0  0  0
   -2.3149   -4.2875   -0.0014 H   0  0  0  0  0  0  0  0  0  0  0  0
   -1.3824    2.5806    1.3025 H   0  0  0  0  0  0  0  0  0  0  0  0
   -3.7889    4.3038    0.4187 H   0  0  0  0  0  0  0  0  0  0  0  0
   -2.3340    4.8377    1.2982 H   0  0  0  0  0  0  0  0  0  0  0  0
   -3.5066    3.7322    2.0924 H   0  0  0  0  0  0  0  0  0  0  0  0
   -2.3405    3.2522   -1.5461 H   0  0  0  0  0  0  0  0  0  0  0  0
   -0.8993    2.2854   -1.1045 H   0  0  0  0  0  0  0  0  0  0  0  0
   -0.9621    4.0353   -0.6997 H   0  0  0  0  0  0  0  0  0  0  0  0
   -7.3478   -1.1980    0.1748 H   0  0  0  0  0  0  0  0  0  0  0  0
   -6.7443   -1.2766   -1.5278 H   0  0  0  0  0  0  0  0  0  0  0  0
   -8.1734   -0.2497   -1.1209 H   0  0  0  0  0  0  0  0  0  0  0  0
    4.7683    2.4699   -0.4069 H   0  0  0  0  0  0  0  0  0  0  0  0
    5.1398   -1.8020    0.1131 H   0  0  0  0  0  0  0  0  0  0  0  0
    1.1126    2.4723    0.6079 H   0  0  0  0  0  0  0  0  0  0  0  0
    3.6891    3.9920    1.3960 H   0  0  0  0  0  0  0  0  0  0  0  0
    2.6396    3.1097    2.5391 H   0  0  0  0  0  0  0  0  0  0  0  0
    2.0068    4.5480    1.6681 H   0  0  0  0  0  0  0  0  0  0  0  0
    3.1966    3.8854   -1.1734 H   0  0  0  0  0  0  0  0  0  0  0  0
    1.5275    4.4295   -0.8399 H   0  0  0  0  0  0  0  0  0  0  0  0
    1.8119    2.9112   -1.7532 H   0  0  0  0  0  0  0  0  0  0  0  0
    1.5408   -2.2390    0.9800 H   0  0  0  0  0  0  0  0  0  0  0  0
    4.0880   -2.7074    2.6660 H   0  0  0  0  0  0  0  0  0  0  0  0
    2.5325   -3.5824    2.8541 H   0  0  0  0  0  0  0  0  0  0  0  0
    2.6332   -1.8276    3.2131 H   0  0  0  0  0  0  0  0  0  0  0  0
    4.1637   -3.7199    0.2928 H   0  0  0  0  0  0  0  0  0  0  0  0
    2.9280   -3.2366   -0.9167 H   0  0  0  0  0  0  0  0  0  0  0  0
    2.5124   -4.3922    0.3836 H   0  0  0  0  0  0  0  0  0  0  0  0
    6.7653   -1.3484   -1.4881 H   0  0  0  0  0  0  0  0  0  0  0  0
    7.3586   -1.1285    0.2054 H   0  0  0  0  0  0  0  0  0  0  0  0
    8.1637   -0.2554   -1.1546 H   0  0  0  0  0  0  0  0  0  0  0  0
  1 11  1  0  0  0  0
  2 24  1  0  0  0  0
  3  6  1  0  0  0  0
  4  7  1  0  0  0  0
  5  4  1  0  0  0  0
  5  3  1  0  0  0  0
  6 35  1  0  0  0  0
  6 34  1  0  0  0  0
  7  6  1  0  0  0  0
  7 36  1  0  0  0  0
  7 37  1  0  0  0  0
  8  3  1  0  0  0  0
  9  8  1  0  0  0  0
  9 14  1  0  0  0  0
 10  9  2  0  0  0  0
 11 12  2  0  0  0  0
 11 10  1  0  0  0  0
 12 13  1  0  0  0  0
 13 17  1  0  0  0  0
 13  8  2  0  0  0  0
 14 40  1  0  0  0  0
 14 15  1  0  0  0  0
 15 41  1  0  0  0  0
 15 43  1  0  0  0  0
 15 42  1  0  0  0  0
 16 45  1  0  0  0  0
 16 46  1  0  0  0  0
 16 14  1  0  0  0  0
 17 18  1  0  0  0  0
 17 47  1  0  0  0  0
 18 49  1  0  0  0  0
 18 50  1  0  0  0  0
 19 53  1  0  0  0  0
 19 17  1  0  0  0  0
 20  1  1  0  0  0  0
 20 54  1  0  0  0  0
 21  4  1  0  0  0  0
 22 27  1  0  0  0  0
 22 21  2  0  0  0  0
 23 22  1  0  0  0  0
 24 23  2  0  0  0  0
 24 25  1  0  0  0  0
 25 26  2  0  0  0  0
 26 21  1  0  0  0  0
 26 30  1  0  0  0  0
 27 59  1  0  0  0  0
 27 28  1  0  0  0  0
 28 62  1  0  0  0  0
 28 61  1  0  0  0  0
 29 64  1  0  0  0  0
 29 27  1  0  0  0  0
 30 31  1  0  0  0  0
 31 67  1  0  0  0  0
 31 68  1  0  0  0  0
 31 69  1  0  0  0  0
 32 70  1  0  0  0  0
 32 72  1  0  0  0  0
 32 30  1  0  0  0  0
 33  2  1  0  0  0  0
 33 74  1  0  0  0  0
 38 10  1  0  0  0  0
 39 12  1  0  0  0  0
 44 16  1  0  0  0  0
 48 18  1  0  0  0  0
 51 19  1  0  0  0  0
 52 19  1  0  0  0  0
 55 20  1  0  0  0  0
 56 20  1  0  0  0  0
 57 23  1  0  0  0  0
 58 25  1  0  0  0  0
 60 28  1  0  0  0  0
 63 29  1  0  0  0  0
 65 29  1  0  0  0  0
 66 30  1  0  0  0  0
 71 32  1  0  0  0  0
 73 33  1  0  0  0  0
 75 33  1  0  0  0  0
M  END
