3
 OpenBabel05122313113D

 11 11  0  0  0  0  0  0  0  0999 V2000
   -4.0456    2.5902   -0.0010 Cl  0  0  0  0  0  0  0  0  0  0  0  0
   -4.8128   -2.4378    0.0011 F   0  0  0  0  0  0  0  0  0  0  0  0
   -1.6058   -0.6547   -0.0012 C   0  0  0  0  0  3  0  0  0  0  0  0
   -2.1096    0.6713   -0.0014 C   0  0  0  0  0  0  0  0  0  0  0  0
   -1.4422    1.5426   -0.0017 H   0  0  0  0  0  0  0  0  0  0  0  0
   -3.4895    0.9263   -0.0008 C   0  0  0  0  0  0  0  0  0  0  0  0
   -4.4398   -0.1037   -0.0001 C   0  0  0  0  0  0  0  0  0  0  0  0
   -5.5195    0.0912    0.0003 H   0  0  0  0  0  0  0  0  0  0  0  0
   -3.9365   -1.4081    0.0002 C   0  0  0  0  0  0  0  0  0  0  0  0
   -2.5667   -1.6906   -0.0002 C   0  0  0  0  0  0  0  0  0  0  0  0
   -2.2843   -2.7521    0.0002 H   0  0  0  0  0  0  0  0  0  0  0  0
  1  6  1  0  0  0  0
  3 10  1  0  0  0  0
  4  3  2  0  0  0  0
  4  6  1  0  0  0  0
  5  4  1  0  0  0  0
  6  7  2  0  0  0  0
  7  9  1  0  0  0  0
  7  8  1  0  0  0  0
  9  2  1  0  0  0  0
 10  9  2  0  0  0  0
 10 11  1  0  0  0  0
M  END
