7
 OpenBabel05122313113D

 16 17  0  0  1  0  0  0  0  0999 V2000
    2.3077    1.4756   -0.2165 S   0  0  0  0  0  0  0  0  0  0  0  0
    2.3080   -1.4752   -0.2171 S   0  0  0  0  0  0  0  0  0  0  0  0
   -0.5794    1.1724   -1.6153 C   0  0  0  0  0  0  0  0  0  0  0  0
   -1.8841    0.7201   -1.9407 C   0  0  0  0  0  0  0  0  0  0  0  0
   -1.8840   -0.7195   -1.9410 C   0  0  0  0  0  0  0  0  0  0  0  0
   -0.5793   -1.1720   -1.6160 C   0  0  0  0  0  0  0  0  0  0  0  0
    0.2646    0.0002   -1.4183 C   0  0  2  0  0  3  0  0  0  0  0  0
    1.4423    0.0002   -0.6268 C   0  0  2  0  0  3  0  0  0  0  0  0
    3.6265    0.6779    0.6050 C   0  0  0  0  0  0  0  0  0  0  0  0
    3.6267   -0.6775    0.6047 C   0  0  0  0  0  0  0  0  0  0  0  0
   -0.2547    2.2165   -1.5319 H   0  0  0  0  0  0  0  0  0  0  0  0
   -2.7490    1.3605   -2.1475 H   0  0  0  0  0  0  0  0  0  0  0  0
   -2.7489   -1.3597   -2.1481 H   0  0  0  0  0  0  0  0  0  0  0  0
   -0.2546   -2.2160   -1.5332 H   0  0  0  0  0  0  0  0  0  0  0  0
    4.3851    1.3106    1.0853 H   0  0  0  0  0  0  0  0  0  0  0  0
    4.3854   -1.3102    1.0848 H   0  0  0  0  0  0  0  0  0  0  0  0
  1  9  1  0  0  0  0
  2 10  1  0  0  0  0
  3 11  1  0  0  0  0
  3  7  1  0  0  0  0
  4  3  2  0  0  0  0
  5  4  1  0  0  0  0
  5  6  2  0  0  0  0
  6 14  1  0  0  0  0
  7  6  1  1  0  0  0
  7  8  1  0  0  0  0
  8  2  1  6  0  0  0
  8  1  1  0  0  0  0
  9 15  1  0  0  0  0
 10  9  2  0  0  0  0
 10 16  1  0  0  0  0
 12  4  1  0  0  0  0
 13  5  1  0  0  0  0
M  END
