3
 OpenBabel05122313113D

 67 69  0  0  0  0  0  0  0  0999 V2000
   -1.2622   -0.0149   -1.3665 N   0  0  0  0  0  0  0  0  0  0  0  0
    0.9260   -0.0408   -1.5335 N   0  0  0  0  0  0  0  0  0  0  0  0
   -0.1076   -0.0145   -0.6597 C   0  0  0  0  0  2  0  0  0  0  0  0
   -1.0354   -0.1694   -2.8149 C   0  0  0  0  0  0  0  0  0  0  0  0
   -1.6396    0.5610   -3.3889 H   0  0  0  0  0  0  0  0  0  0  0  0
   -1.3397   -1.1906   -3.1356 H   0  0  0  0  0  0  0  0  0  0  0  0
    0.4814    0.0638   -2.9347 C   0  0  0  0  0  0  0  0  0  0  0  0
    0.9934   -0.6879   -3.5679 H   0  0  0  0  0  0  0  0  0  0  0  0
    0.7310    1.0723   -3.3335 H   0  0  0  0  0  0  0  0  0  0  0  0
   -2.5716   -0.0999   -0.7904 C   0  0  0  0  0  0  0  0  0  0  0  0
   -3.3238    1.0939   -0.6529 C   0  0  0  0  0  0  0  0  0  0  0  0
   -4.6139    0.9947   -0.1020 C   0  0  0  0  0  0  0  0  0  0  0  0
   -5.2193    1.9037    0.0287 H   0  0  0  0  0  0  0  0  0  0  0  0
   -5.1332   -0.2448    0.2948 C   0  0  0  0  0  0  0  0  0  0  0  0
   -6.1436   -0.3018    0.7273 H   0  0  0  0  0  0  0  0  0  0  0  0
   -4.3691   -1.4088    0.1533 C   0  0  0  0  0  0  0  0  0  0  0  0
   -4.7836   -2.3745    0.4807 H   0  0  0  0  0  0  0  0  0  0  0  0
   -3.0722   -1.3638   -0.3925 C   0  0  0  0  0  0  0  0  0  0  0  0
   -2.7210    2.4466   -1.0111 C   0  0  0  0  0  0  0  0  0  0  0  0
   -1.8761    2.2565   -1.7062 H   0  0  0  0  0  0  0  0  0  0  0  0
   -2.1263    3.1101    0.2457 C   0  0  0  0  0  0  0  0  0  0  0  0
   -1.3810    2.4502    0.7357 H   0  0  0  0  0  0  0  0  0  0  0  0
   -2.9212    3.3249    0.9892 H   0  0  0  0  0  0  0  0  0  0  0  0
   -1.6280    4.0674   -0.0122 H   0  0  0  0  0  0  0  0  0  0  0  0
   -3.7079    3.3788   -1.7275 C   0  0  0  0  0  0  0  0  0  0  0  0
   -3.1935    4.3046   -2.0557 H   0  0  0  0  0  0  0  0  0  0  0  0
   -4.5382    3.6906   -1.0611 H   0  0  0  0  0  0  0  0  0  0  0  0
   -4.1548    2.8965   -2.6202 H   0  0  0  0  0  0  0  0  0  0  0  0
   -2.2479   -2.6392   -0.5162 C   0  0  0  0  0  0  0  0  0  0  0  0
   -1.2673   -2.3664   -0.9572 H   0  0  0  0  0  0  0  0  0  0  0  0
   -1.9571   -3.2495    0.8654 C   0  0  0  0  0  0  0  0  0  0  0  0
   -1.2984   -4.1365    0.7676 H   0  0  0  0  0  0  0  0  0  0  0  0
   -2.8902   -3.5750    1.3696 H   0  0  0  0  0  0  0  0  0  0  0  0
   -1.4509   -2.5149    1.5243 H   0  0  0  0  0  0  0  0  0  0  0  0
   -2.9145   -3.6549   -1.4597 C   0  0  0  0  0  0  0  0  0  0  0  0
   -3.0960   -3.2220   -2.4647 H   0  0  0  0  0  0  0  0  0  0  0  0
   -3.8933   -3.9947   -1.0628 H   0  0  0  0  0  0  0  0  0  0  0  0
   -2.2751   -4.5532   -1.5807 H   0  0  0  0  0  0  0  0  0  0  0  0
    2.3074    0.0596   -1.1649 C   0  0  0  0  0  0  0  0  0  0  0  0
    3.0737   -1.1313   -1.0998 C   0  0  0  0  0  0  0  0  0  0  0  0
    4.4313   -1.0176   -0.7514 C   0  0  0  0  0  0  0  0  0  0  0  0
    5.0509   -1.9237   -0.6802 H   0  0  0  0  0  0  0  0  0  0  0  0
    5.0020    0.2329   -0.4797 C   0  0  0  0  0  0  0  0  0  0  0  0
    6.0651    0.3011   -0.2034 H   0  0  0  0  0  0  0  0  0  0  0  0
    4.2238    1.3941   -0.5472 C   0  0  0  0  0  0  0  0  0  0  0  0
    4.6809    2.3689   -0.3186 H   0  0  0  0  0  0  0  0  0  0  0  0
    2.8601    1.3350   -0.8920 C   0  0  0  0  0  0  0  0  0  0  0  0
    2.4262   -2.4935   -1.3153 C   0  0  0  0  0  0  0  0  0  0  0  0
    1.4875   -2.3253   -1.8843 H   0  0  0  0  0  0  0  0  0  0  0  0
    2.0253   -3.1084    0.0392 C   0  0  0  0  0  0  0  0  0  0  0  0
    2.9220   -3.2998    0.6637 H   0  0  0  0  0  0  0  0  0  0  0  0
    1.4945   -4.0719   -0.1064 H   0  0  0  0  0  0  0  0  0  0  0  0
    1.3609   -2.4267    0.6095 H   0  0  0  0  0  0  0  0  0  0  0  0
    3.2974   -3.4554   -2.1351 C   0  0  0  0  0  0  0  0  0  0  0  0
    2.7410   -4.3901   -2.3500 H   0  0  0  0  0  0  0  0  0  0  0  0
    4.2171   -3.7465   -1.5876 H   0  0  0  0  0  0  0  0  0  0  0  0
    3.6071   -3.0075   -3.1009 H   0  0  0  0  0  0  0  0  0  0  0  0
    2.0250    2.6087   -0.9363 C   0  0  0  0  0  0  0  0  0  0  0  0
    0.9908    2.3254   -1.2209 H   0  0  0  0  0  0  0  0  0  0  0  0
    1.9382    3.2651    0.4521 C   0  0  0  0  0  0  0  0  0  0  0  0
    2.9349    3.5985    0.8067 H   0  0  0  0  0  0  0  0  0  0  0  0
    1.5293    2.5550    1.1997 H   0  0  0  0  0  0  0  0  0  0  0  0
    1.2747    4.1535    0.4217 H   0  0  0  0  0  0  0  0  0  0  0  0
    2.5460    3.5906   -1.9996 C   0  0  0  0  0  0  0  0  0  0  0  0
    2.5811    3.1238   -3.0052 H   0  0  0  0  0  0  0  0  0  0  0  0
    3.5713    3.9406   -1.7601 H   0  0  0  0  0  0  0  0  0  0  0  0
    1.8941    4.4862   -2.0568 H   0  0  0  0  0  0  0  0  0  0  0  0
  1 10  1  0  0  0  0
  1  3  1  0  0  0  0
  2 39  1  0  0  0  0
  2  3  1  0  0  0  0
  4  1  1  0  0  0  0
  5  4  1  0  0  0  0
  6  4  1  0  0  0  0
  7  4  1  0  0  0  0
  7  2  1  0  0  0  0
  8  7  1  0  0  0  0
  9  7  1  0  0  0  0
 10 11  2  0  0  0  0
 10 18  1  0  0  0  0
 11 12  1  0  0  0  0
 12 13  1  0  0  0  0
 12 14  2  0  0  0  0
 14 15  1  0  0  0  0
 16 14  1  0  0  0  0
 16 17  1  0  0  0  0
 18 16  2  0  0  0  0
 19 11  1  0  0  0  0
 19 21  1  0  0  0  0
 20 19  1  0  0  0  0
 21 22  1  0  0  0  0
 21 23  1  0  0  0  0
 24 21  1  0  0  0  0
 25 27  1  0  0  0  0
 25 19  1  0  0  0  0
 26 25  1  0  0  0  0
 28 25  1  0  0  0  0
 29 18  1  0  0  0  0
 29 31  1  0  0  0  0
 30 29  1  0  0  0  0
 31 33  1  0  0  0  0
 31 34  1  0  0  0  0
 32 31  1  0  0  0  0
 35 37  1  0  0  0  0
 35 29  1  0  0  0  0
 36 35  1  0  0  0  0
 38 35  1  0  0  0  0
 39 40  2  0  0  0  0
 39 47  1  0  0  0  0
 40 41  1  0  0  0  0
 41 42  1  0  0  0  0
 41 43  2  0  0  0  0
 43 44  1  0  0  0  0
 45 43  1  0  0  0  0
 45 46  1  0  0  0  0
 47 45  2  0  0  0  0
 48 40  1  0  0  0  0
 48 50  1  0  0  0  0
 49 48  1  0  0  0  0
 50 53  1  0  0  0  0
 50 51  1  0  0  0  0
 52 50  1  0  0  0  0
 54 56  1  0  0  0  0
 54 48  1  0  0  0  0
 55 54  1  0  0  0  0
 57 54  1  0  0  0  0
 58 47  1  0  0  0  0
 58 60  1  0  0  0  0
 59 58  1  0  0  0  0
 60 61  1  0  0  0  0
 60 62  1  0  0  0  0
 63 60  1  0  0  0  0
 64 66  1  0  0  0  0
 64 58  1  0  0  0  0
 65 64  1  0  0  0  0
 67 64  1  0  0  0  0
M  END
