3
 OpenBabel05122313113D

 37 39  0  0  1  0  0  0  0  0999 V2000
    1.9332   -1.2820    0.1467 N   0  0  0  0  0  0  0  0  0  0  0  0
    3.1578    0.5042   -0.2692 N   0  0  0  0  0  0  0  0  0  0  0  0
    1.0129   -0.2477   -0.0521 C   0  0  0  0  0  3  0  0  0  0  0  0
    1.7966    0.8757   -0.3139 C   0  0  0  0  0  0  0  0  0  0  0  0
    3.2380   -0.8239    0.0117 C   0  0  2  0  0  3  0  0  0  0  0  0
    4.3311   -1.6995    0.1386 C   0  0  0  0  0  0  0  0  0  0  0  0
    5.3540   -1.3177    0.0187 H   0  0  0  0  0  0  0  0  0  0  0  0
    4.0926   -3.0464    0.4198 C   0  0  0  0  0  0  0  0  0  0  0  0
    2.7369   -3.4791    0.5683 C   0  0  0  0  0  0  0  0  0  0  0  0
    2.5178   -4.5323    0.7933 H   0  0  0  0  0  0  0  0  0  0  0  0
    1.6835   -2.6032    0.4299 C   0  0  0  0  0  0  0  0  0  0  0  0
    0.6188   -2.8597    0.5147 H   0  0  0  0  0  0  0  0  0  0  0  0
    5.2181   -4.0324    0.5690 C   0  0  0  0  0  0  0  0  0  0  0  0
    5.1240   -4.8571   -0.1683 H   0  0  0  0  0  0  0  0  0  0  0  0
    5.2045   -4.5022    1.5749 H   0  0  0  0  0  0  0  0  0  0  0  0
    6.2065   -3.5560    0.4264 H   0  0  0  0  0  0  0  0  0  0  0  0
    4.3212    1.3380   -0.5620 C   0  0  0  0  0  0  0  0  0  0  0  0
    3.9460    2.2298   -1.0991 H   0  0  0  0  0  0  0  0  0  0  0  0
    4.9659    0.7811   -1.2743 H   0  0  0  0  0  0  0  0  0  0  0  0
    5.1125    1.7400    0.6820 C   0  0  0  0  0  0  0  0  0  0  0  0
    4.4824    2.3088    1.3934 H   0  0  0  0  0  0  0  0  0  0  0  0
    5.9708    2.3786    0.3938 H   0  0  0  0  0  0  0  0  0  0  0  0
    5.5086    0.8561    1.2196 H   0  0  0  0  0  0  0  0  0  0  0  0
    1.3242    2.2336   -0.6054 C   0  0  0  0  0  0  0  0  0  0  0  0
    1.8670    3.3816    0.0118 C   0  0  0  0  0  0  0  0  0  0  0  0
    2.6694    3.2789    0.7562 H   0  0  0  0  0  0  0  0  0  0  0  0
    1.3529    4.6548   -0.2677 C   0  0  0  0  0  0  0  0  0  0  0  0
    1.7852    5.5341    0.2355 H   0  0  0  0  0  0  0  0  0  0  0  0
    0.2776    4.8295   -1.1600 C   0  0  0  0  0  0  0  0  0  0  0  0
   -0.2675    3.6769   -1.7666 C   0  0  0  0  0  0  0  0  0  0  0  0
   -1.1092    3.7818   -2.4698 H   0  0  0  0  0  0  0  0  0  0  0  0
    0.2400    2.4027   -1.4997 C   0  0  0  0  0  0  0  0  0  0  0  0
   -0.1935    1.5153   -1.9862 H   0  0  0  0  0  0  0  0  0  0  0  0
   -0.2890    6.1951   -1.4528 C   0  0  0  0  0  0  0  0  0  0  0  0
    0.2843    6.9951   -0.9460 H   0  0  0  0  0  0  0  0  0  0  0  0
   -1.3447    6.2706   -1.1167 H   0  0  0  0  0  0  0  0  0  0  0  0
   -0.2857    6.4086   -2.5420 H   0  0  0  0  0  0  0  0  0  0  0  0
  1 11  1  0  0  0  0
  2  5  1  0  0  0  0
  3  1  1  0  0  0  0
  4  2  1  0  0  0  0
  4  3  2  0  0  0  0
  5  6  1  6  0  0  0
  5  1  1  0  0  0  0
  6  8  2  0  0  0  0
  7  6  1  0  0  0  0
  8  9  1  0  0  0  0
  8 13  1  0  0  0  0
  9 10  1  0  0  0  0
 11 12  1  0  0  0  0
 11  9  2  0  0  0  0
 13 15  1  0  0  0  0
 14 13  1  0  0  0  0
 16 13  1  0  0  0  0
 17  2  1  0  0  0  0
 17 20  1  0  0  0  0
 18 17  1  0  0  0  0
 19 17  1  0  0  0  0
 20 23  1  0  0  0  0
 20 21  1  0  0  0  0
 22 20  1  0  0  0  0
 24  4  1  0  0  0  0
 24 25  1  0  0  0  0
 25 26  1  0  0  0  0
 27 25  2  0  0  0  0
 27 28  1  0  0  0  0
 29 27  1  0  0  0  0
 30 32  1  0  0  0  0
 30 29  2  0  0  0  0
 31 30  1  0  0  0  0
 32 24  2  0  0  0  0
 33 32  1  0  0  0  0
 34 29  1  0  0  0  0
 34 36  1  0  0  0  0
 34 35  1  0  0  0  0
 37 34  1  0  0  0  0
M  END
