5
 OpenBabel05122313113D

 20 21  0  0  0  0  0  0  0  0999 V2000
   -1.8914    1.9811    1.3708 N   0  0  0  0  0  0  0  0  0  0  0  0
   -2.6223    0.3242    0.1796 N   0  0  0  0  0  0  0  0  0  0  0  0
   -1.5636   -1.4091   -1.0176 N   0  0  0  0  0  0  0  0  0  0  0  0
   -3.9352   -1.0787   -1.1398 N   0  0  0  0  0  0  0  0  0  0  0  0
   -1.4710    0.9637    0.5786 C   0  0  0  0  0  2  0  0  0  0  0  0
   -1.0035    3.0073    1.9108 C   0  0  0  0  0  0  0  0  0  0  0  0
   -0.1278    2.5273    2.3856 H   0  0  0  0  0  0  0  0  0  0  0  0
   -1.5532    3.6054    2.6591 H   0  0  0  0  0  0  0  0  0  0  0  0
   -0.6489    3.6530    1.0836 H   0  0  0  0  0  0  0  0  0  0  0  0
   -3.2826    1.9966    1.4652 C   0  0  0  0  0  0  0  0  0  0  0  0
   -3.8179    2.7482    2.0531 H   0  0  0  0  0  0  0  0  0  0  0  0
   -3.7490    0.9560    0.7149 C   0  0  0  0  0  0  0  0  0  0  0  0
   -4.7548    0.5932    0.4909 H   0  0  0  0  0  0  0  0  0  0  0  0
   -2.7040   -0.7854   -0.7135 C   0  0  0  0  0  0  0  0  0  0  0  0
   -1.6678   -2.4181   -1.8980 C   0  0  0  0  0  0  0  0  0  0  0  0
   -0.7311   -2.9376   -2.1630 H   0  0  0  0  0  0  0  0  0  0  0  0
   -2.8979   -2.8030   -2.4497 C   0  0  0  0  0  0  0  0  0  0  0  0
   -2.9756   -3.6244   -3.1752 H   0  0  0  0  0  0  0  0  0  0  0  0
   -4.0274   -2.0944   -2.0117 C   0  0  0  0  0  0  0  0  0  0  0  0
   -5.0399   -2.3466   -2.3705 H   0  0  0  0  0  0  0  0  0  0  0  0
  1 10  1  0  0  0  0
  1  6  1  0  0  0  0
  2  5  1  0  0  0  0
  2 12  1  0  0  0  0
  3 14  1  0  0  0  0
  4 14  2  0  0  0  0
  5  1  1  0  0  0  0
  6  7  1  0  0  0  0
  6  8  1  0  0  0  0
  9  6  1  0  0  0  0
 10 11  1  0  0  0  0
 12 10  2  0  0  0  0
 13 12  1  0  0  0  0
 14  2  1  0  0  0  0
 15  3  2  0  0  0  0
 16 15  1  0  0  0  0
 17 19  2  0  0  0  0
 17 15  1  0  0  0  0
 18 17  1  0  0  0  0
 19  4  1  0  0  0  0
 20 19  1  0  0  0  0
M  END
