32
 OpenBabel05122313113D

 58 57  0  0  0  0  0  0  0  0999 V2000
    3.1421   -0.8354   -0.1024 C   0  0  0  0  0  3  0  0  0  0  0  0
    1.8424   -0.4023   -0.1200 C   0  0  0  0  0  3  0  0  0  0  0  0
    0.6406   -1.0878   -0.0348 C   0  0  0  0  0  3  0  0  0  0  0  0
    4.3178    0.1714   -0.1396 C   0  0  0  0  0  0  0  0  0  0  0  0
    4.9432    0.2757    1.2752 C   0  0  0  0  0  0  0  0  0  0  0  0
    3.8529    1.5831   -0.5489 C   0  0  0  0  0  0  0  0  0  0  0  0
    5.4187   -0.2013   -1.1686 C   0  0  0  0  0  0  0  0  0  0  0  0
    3.3587   -2.3811    0.0988 C   0  0  0  0  0  0  0  0  0  0  0  0
    4.8087   -2.9137    0.0484 C   0  0  0  0  0  0  0  0  0  0  0  0
    2.5983   -3.1614   -1.0005 C   0  0  0  0  0  0  0  0  0  0  0  0
    2.7975   -2.7616    1.4925 C   0  0  0  0  0  0  0  0  0  0  0  0
    5.7990    0.9829    1.2644 H   0  0  0  0  0  0  0  0  0  0  0  0
    5.3168   -0.6963    1.6483 H   0  0  0  0  0  0  0  0  0  0  0  0
    4.2013    0.6473    2.0097 H   0  0  0  0  0  0  0  0  0  0  0  0
    4.6914    2.2975   -0.4208 H   0  0  0  0  0  0  0  0  0  0  0  0
    2.9952    1.9366    0.0465 H   0  0  0  0  0  0  0  0  0  0  0  0
    3.5534    1.6074   -1.6134 H   0  0  0  0  0  0  0  0  0  0  0  0
    6.0583    0.6864   -1.3510 H   0  0  0  0  0  0  0  0  0  0  0  0
    4.9728   -0.4953   -2.1406 H   0  0  0  0  0  0  0  0  0  0  0  0
    6.0845   -1.0127   -0.8333 H   0  0  0  0  0  0  0  0  0  0  0  0
    5.2473   -2.8507   -0.9642 H   0  0  0  0  0  0  0  0  0  0  0  0
    4.7881   -3.9882    0.3229 H   0  0  0  0  0  0  0  0  0  0  0  0
    5.4911   -2.4146    0.7614 H   0  0  0  0  0  0  0  0  0  0  0  0
    1.5125   -2.9507   -0.9887 H   0  0  0  0  0  0  0  0  0  0  0  0
    2.7343   -4.2529   -0.8540 H   0  0  0  0  0  0  0  0  0  0  0  0
    2.9888   -2.9003   -2.0053 H   0  0  0  0  0  0  0  0  0  0  0  0
    1.7279   -2.4918    1.5872 H   0  0  0  0  0  0  0  0  0  0  0  0
    3.3561   -2.2443    2.2991 H   0  0  0  0  0  0  0  0  0  0  0  0
    2.8912   -3.8549    1.6604 H   0  0  0  0  0  0  0  0  0  0  0  0
   -3.1421   -0.8354    0.1023 C   0  0  0  0  0  0  0  0  0  0  0  0
   -1.8423   -0.4023    0.1197 C   0  0  0  0  0  3  0  0  0  0  0  0
   -0.6406   -1.0878    0.0346 C   0  0  0  0  0  2  0  0  0  0  0  0
   -4.3178    0.1714    0.1399 C   0  0  0  0  0  0  0  0  0  0  0  0
   -4.9435    0.2758   -1.2747 C   0  0  0  0  0  0  0  0  0  0  0  0
   -3.8529    1.5831    0.5494 C   0  0  0  0  0  0  0  0  0  0  0  0
   -5.4185   -0.2015    1.1690 C   0  0  0  0  0  0  0  0  0  0  0  0
   -3.3587   -2.3810   -0.0989 C   0  0  0  0  0  0  0  0  0  0  0  0
   -4.8088   -2.9136   -0.0483 C   0  0  0  0  0  0  0  0  0  0  0  0
   -2.5982   -3.1614    1.0002 C   0  0  0  0  0  0  0  0  0  0  0  0
   -2.7978   -2.7615   -1.4928 C   0  0  0  0  0  0  0  0  0  0  0  0
   -5.7993    0.9830   -1.2637 H   0  0  0  0  0  0  0  0  0  0  0  0
   -5.3171   -0.6961   -1.6479 H   0  0  0  0  0  0  0  0  0  0  0  0
   -4.2017    0.6475   -2.0094 H   0  0  0  0  0  0  0  0  0  0  0  0
   -4.6915    2.2974    0.4215 H   0  0  0  0  0  0  0  0  0  0  0  0
   -2.9953    1.9367   -0.0460 H   0  0  0  0  0  0  0  0  0  0  0  0
   -3.5533    1.6072    1.6139 H   0  0  0  0  0  0  0  0  0  0  0  0
   -6.0580    0.6862    1.3517 H   0  0  0  0  0  0  0  0  0  0  0  0
   -4.9725   -0.4957    2.1409 H   0  0  0  0  0  0  0  0  0  0  0  0
   -6.0844   -1.0129    0.8337 H   0  0  0  0  0  0  0  0  0  0  0  0
   -5.2472   -2.8506    0.9644 H   0  0  0  0  0  0  0  0  0  0  0  0
   -4.7883   -3.9881   -0.3229 H   0  0  0  0  0  0  0  0  0  0  0  0
   -5.4912   -2.4144   -0.7612 H   0  0  0  0  0  0  0  0  0  0  0  0
   -1.5124   -2.9506    0.9882 H   0  0  0  0  0  0  0  0  0  0  0  0
   -2.7341   -4.2529    0.8537 H   0  0  0  0  0  0  0  0  0  0  0  0
   -2.9884   -2.9004    2.0051 H   0  0  0  0  0  0  0  0  0  0  0  0
   -1.7282   -2.4917   -1.5877 H   0  0  0  0  0  0  0  0  0  0  0  0
   -3.3566   -2.2441   -2.2992 H   0  0  0  0  0  0  0  0  0  0  0  0
   -2.8916   -3.8548   -1.6606 H   0  0  0  0  0  0  0  0  0  0  0  0
  1  8  1  0  0  0  0
  2  1  1  0  0  0  0
  2  3  2  0  0  0  0
  3 32  1  0  0  0  0
  4  1  1  0  0  0  0
  4  5  1  0  0  0  0
  5 13  1  0  0  0  0
  5 14  1  0  0  0  0
  6 15  1  0  0  0  0
  6  4  1  0  0  0  0
  6 16  1  0  0  0  0
  7 20  1  0  0  0  0
  7  4  1  0  0  0  0
  8 11  1  0  0  0  0
  9  8  1  0  0  0  0
  9 22  1  0  0  0  0
  9 23  1  0  0  0  0
 10 24  1  0  0  0  0
 10 25  1  0  0  0  0
 10  8  1  0  0  0  0
 11 27  1  0  0  0  0
 11 29  1  0  0  0  0
 11 28  1  0  0  0  0
 12  5  1  0  0  0  0
 17  6  1  0  0  0  0
 18  7  1  0  0  0  0
 19  7  1  0  0  0  0
 21  9  1  0  0  0  0
 26 10  1  0  0  0  0
 30 31  2  0  0  0  0
 30 33  1  0  0  0  0
 32 31  1  0  0  0  0
 33 35  1  0  0  0  0
 33 36  1  0  0  0  0
 34 41  1  0  0  0  0
 34 33  1  0  0  0  0
 35 46  1  0  0  0  0
 36 47  1  0  0  0  0
 36 48  1  0  0  0  0
 37 38  1  0  0  0  0
 37 30  1  0  0  0  0
 37 39  1  0  0  0  0
 38 50  1  0  0  0  0
 39 55  1  0  0  0  0
 40 37  1  0  0  0  0
 42 34  1  0  0  0  0
 43 34  1  0  0  0  0
 44 35  1  0  0  0  0
 45 35  1  0  0  0  0
 49 36  1  0  0  0  0
 51 38  1  0  0  0  0
 52 38  1  0  0  0  0
 53 39  1  0  0  0  0
 54 39  1  0  0  0  0
 56 40  1  0  0  0  0
 57 40  1  0  0  0  0
 58 40  1  0  0  0  0
M  END
