5
 OpenBabel05122313113D

 32 32  0  0  1  0  0  0  0  0999 V2000
    2.4537    2.2645    0.6480 O   0  0  0  0  0  0  0  0  0  0  0  0
   -1.5017   -0.8500   -1.4866 C   0  0  0  0  0  3  0  0  0  0  0  0
   -1.1681   -1.8286   -0.5000 C   0  0  0  0  0  0  0  0  0  0  0  0
   -0.9342   -1.3310    0.8185 C   0  0  0  0  0  0  0  0  0  0  0  0
   -1.1298    0.1419    0.8542 C   0  0  2  0  0  3  0  0  0  0  0  0
   -2.4484    0.7093    0.3137 C   0  0  0  0  0  0  0  0  0  0  0  0
   -2.5034    0.2523   -1.1806 C   0  0  0  0  0  0  0  0  0  0  0  0
    0.0337    0.9063    1.1154 C   0  0  0  0  0  3  0  0  0  0  0  0
    1.3132    0.2581    1.2414 C   0  0  0  0  0  3  0  0  0  0  0  0
    2.5289    1.0966    1.0231 C   0  0  0  0  0  0  0  0  0  0  0  0
    3.8638    0.4184    1.2755 C   0  0  0  0  0  0  0  0  0  0  0  0
   -0.6369   -2.1953    2.0075 C   0  0  0  0  0  0  0  0  0  0  0  0
   -3.6151    0.1057    1.1227 C   0  0  0  0  0  0  0  0  0  0  0  0
   -2.5022    2.2407    0.3982 C   0  0  0  0  0  0  0  0  0  0  0  0
   -1.4628   -1.1719   -2.5403 H   0  0  0  0  0  0  0  0  0  0  0  0
   -0.9540   -2.8804   -0.7512 H   0  0  0  0  0  0  0  0  0  0  0  0
    0.0342    2.0008    0.9935 H   0  0  0  0  0  0  0  0  0  0  0  0
    1.4480   -0.6447    1.8548 H   0  0  0  0  0  0  0  0  0  0  0  0
   -3.5300   -0.0894   -1.4480 H   0  0  0  0  0  0  0  0  0  0  0  0
   -2.2923    1.1212   -1.8369 H   0  0  0  0  0  0  0  0  0  0  0  0
    4.6882    1.1149    1.0400 H   0  0  0  0  0  0  0  0  0  0  0  0
    3.9392    0.0962    2.3353 H   0  0  0  0  0  0  0  0  0  0  0  0
    3.9551   -0.4970    0.6549 H   0  0  0  0  0  0  0  0  0  0  0  0
   -0.0288   -1.6643    2.7657 H   0  0  0  0  0  0  0  0  0  0  0  0
   -1.5835   -2.4851    2.5131 H   0  0  0  0  0  0  0  0  0  0  0  0
   -0.1113   -3.1257    1.7132 H   0  0  0  0  0  0  0  0  0  0  0  0
   -4.5872    0.4952    0.7581 H   0  0  0  0  0  0  0  0  0  0  0  0
   -3.6351   -0.9992    1.0360 H   0  0  0  0  0  0  0  0  0  0  0  0
   -3.5269    0.3626    2.1983 H   0  0  0  0  0  0  0  0  0  0  0  0
   -3.4612    2.6091   -0.0190 H   0  0  0  0  0  0  0  0  0  0  0  0
   -2.4305    2.5931    1.4471 H   0  0  0  0  0  0  0  0  0  0  0  0
   -1.6849    2.7124   -0.1829 H   0  0  0  0  0  0  0  0  0  0  0  0
  1 10  2  0  0  0  0
  2  7  1  0  0  0  0
  2  3  1  0  0  0  0
  3  4  2  0  0  0  0
  4  5  1  0  0  0  0
  4 12  1  0  0  0  0
  5  8  1  6  0  0  0
  6 14  1  0  0  0  0
  6  5  1  0  0  0  0
  6 13  1  0  0  0  0
  7  6  1  0  0  0  0
  8  9  1  0  0  0  0
  9 18  1  0  0  0  0
 10  9  1  0  0  0  0
 10 11  1  0  0  0  0
 11 22  1  0  0  0  0
 12 25  1  0  0  0  0
 12 24  1  0  0  0  0
 13 29  1  0  0  0  0
 14 31  1  0  0  0  0
 15  2  1  0  0  0  0
 16  3  1  0  0  0  0
 17  8  1  0  0  0  0
 19  7  1  0  0  0  0
 20  7  1  0  0  0  0
 21 11  1  0  0  0  0
 23 11  1  0  0  0  0
 26 12  1  0  0  0  0
 27 13  1  0  0  0  0
 28 13  1  0  0  0  0
 30 14  1  0  0  0  0
 32 14  1  0  0  0  0
M  END
