25
 OpenBabel05122313113D

 29 29  0  0  1  0  0  0  0  0999 V2000
    1.7110    0.6802    0.6436 C   0  0  0  0  0  0  0  0  0  0  0  0
    1.7798    0.2839   -0.7470 C   0  0  0  0  0  0  0  0  0  0  0  0
    1.3626   -1.0981   -0.8612 C   0  0  0  0  0  0  0  0  0  0  0  0
    0.9904   -1.5581    0.4642 C   0  0  0  0  0  0  0  0  0  0  0  0
    1.1844   -0.4511    1.3824 C   0  0  2  0  0  3  0  0  0  0  0  0
    2.1837    1.9847    1.2119 C   0  0  0  0  0  0  0  0  0  0  0  0
    1.9973    2.8264    0.5171 H   0  0  0  0  0  0  0  0  0  0  0  0
    3.2760    1.9542    1.4151 H   0  0  0  0  0  0  0  0  0  0  0  0
    1.6833    2.2249    2.1700 H   0  0  0  0  0  0  0  0  0  0  0  0
    2.3460    1.1180   -1.8575 C   0  0  0  0  0  0  0  0  0  0  0  0
    1.9173    0.8344   -2.8372 H   0  0  0  0  0  0  0  0  0  0  0  0
    3.4477    0.9879   -1.9217 H   0  0  0  0  0  0  0  0  0  0  0  0
    2.1444    2.1949   -1.7013 H   0  0  0  0  0  0  0  0  0  0  0  0
    1.4510   -1.9519   -2.0899 C   0  0  0  0  0  0  0  0  0  0  0  0
    1.3226   -1.3520   -3.0105 H   0  0  0  0  0  0  0  0  0  0  0  0
    0.6725   -2.7385   -2.0933 H   0  0  0  0  0  0  0  0  0  0  0  0
    2.4399   -2.4572   -2.1523 H   0  0  0  0  0  0  0  0  0  0  0  0
    0.5584   -2.9503    0.8203 C   0  0  0  0  0  0  0  0  0  0  0  0
   -0.0534   -3.4044    0.0176 H   0  0  0  0  0  0  0  0  0  0  0  0
   -0.0474   -2.9669    1.7459 H   0  0  0  0  0  0  0  0  0  0  0  0
    1.4409   -3.6058    0.9832 H   0  0  0  0  0  0  0  0  0  0  0  0
    0.3706   -0.3085    2.6659 C   0  0  0  0  0  0  0  0  0  0  0  0
    0.3346   -1.2580    3.2318 H   0  0  0  0  0  0  0  0  0  0  0  0
    0.7856    0.4669    3.3413 H   0  0  0  0  0  0  0  0  0  0  0  0
   -1.0084    0.0697    2.0991 C   0  0  0  0  0  3  0  0  0  0  0  0
   -1.8519   -0.6019    2.3255 H   0  0  0  0  0  0  0  0  0  0  0  0
   -1.2665    1.3903    1.6133 C   0  0  0  0  0  3  0  0  0  0  0  0
   -2.3139    1.7030    1.4871 H   0  0  0  0  0  0  0  0  0  0  0  0
   -0.5784    2.2165    1.8611 H   0  0  0  0  0  0  0  0  0  0  0  0
  1  6  1  0  0  0  0
  1  5  1  0  0  0  0
  2  1  2  0  0  0  0
  3  2  1  0  0  0  0
  3  4  2  0  0  0  0
  4 18  1  0  0  0  0
  4  5  1  0  0  0  0
  5 22  1  6  0  0  0
  6  8  1  0  0  0  0
  6  9  1  0  0  0  0
  7  6  1  0  0  0  0
 10 13  1  0  0  0  0
 10  2  1  0  0  0  0
 11 10  1  0  0  0  0
 12 10  1  0  0  0  0
 14  3  1  0  0  0  0
 15 14  1  0  0  0  0
 16 14  1  0  0  0  0
 17 14  1  0  0  0  0
 18 21  1  0  0  0  0
 18 20  1  0  0  0  0
 19 18  1  0  0  0  0
 22 23  1  0  0  0  0
 22 24  1  0  0  0  0
 25 26  1  0  0  0  0
 25 22  1  0  0  0  0
 27 29  1  0  0  0  0
 27 25  1  0  0  0  0
 28 27  1  0  0  0  0
M  END
