1
 OpenBabel05122313113D

 29 31  0  0  0  0  0  0  0  0999 V2000
   -0.0365   -0.3467   -0.0699 C   0  0  0  0  0  1  0  0  0  0  0  0
    1.1403   -0.4663   -0.0948 N   0  0  0  0  0  2  0  0  0  0  0  0
    6.6502   -0.8835   -0.2198 N   0  0  0  0  0  0  0  0  0  0  0  0
    5.2696   -0.9697   -0.1893 C   0  0  0  0  0  0  0  0  0  0  0  0
    4.4425   -2.1084   -0.2275 C   0  0  0  0  0  0  0  0  0  0  0  0
    4.8601   -3.1237   -0.2765 H   0  0  0  0  0  0  0  0  0  0  0  0
    3.0600   -1.9222   -0.1970 C   0  0  0  0  0  0  0  0  0  0  0  0
    2.3789   -2.7838   -0.2255 H   0  0  0  0  0  0  0  0  0  0  0  0
    2.5088   -0.6136   -0.1247 C   0  0  0  0  0  0  0  0  0  0  0  0
    3.3311    0.5313   -0.0795 C   0  0  0  0  0  0  0  0  0  0  0  0
    2.8769    1.5303   -0.0205 H   0  0  0  0  0  0  0  0  0  0  0  0
    4.7191    0.3550   -0.1091 C   0  0  0  0  0  0  0  0  0  0  0  0
    7.0221    0.4597   -0.1335 C   0  0  0  0  0  0  0  0  0  0  0  0
    8.3070    1.0273   -0.1071 C   0  0  0  0  0  0  0  0  0  0  0  0
    9.2134    0.4062   -0.1421 H   0  0  0  0  0  0  0  0  0  0  0  0
    8.3973    2.4238   -0.0294 C   0  0  0  0  0  0  0  0  0  0  0  0
    9.3914    2.8951   -0.0073 H   0  0  0  0  0  0  0  0  0  0  0  0
    7.2431    3.2378    0.0244 C   0  0  0  0  0  0  0  0  0  0  0  0
    7.3538    4.3302    0.0859 H   0  0  0  0  0  0  0  0  0  0  0  0
    5.9642    2.6684    0.0034 C   0  0  0  0  0  0  0  0  0  0  0  0
    5.0670    3.3039    0.0478 H   0  0  0  0  0  0  0  0  0  0  0  0
    5.8444    1.2688   -0.0734 C   0  0  0  0  0  0  0  0  0  0  0  0
    7.5697   -2.0104   -0.2226 C   0  0  0  0  0  0  0  0  0  0  0  0
    8.4708   -1.7079   -0.7944 H   0  0  0  0  0  0  0  0  0  0  0  0
    7.1000   -2.8297   -0.8043 H   0  0  0  0  0  0  0  0  0  0  0  0
    7.9489   -2.4847    1.1812 C   0  0  0  0  0  0  0  0  0  0  0  0
    8.4372   -1.6730    1.7560 H   0  0  0  0  0  0  0  0  0  0  0  0
    8.6524   -3.3390    1.1243 H   0  0  0  0  0  0  0  0  0  0  0  0
    7.0534   -2.8119    1.7461 H   0  0  0  0  0  0  0  0  0  0  0  0
  2  1  1  0  0  0  0
  3  4  1  0  0  0  0
  3 13  1  0  0  0  0
  4 12  1  0  0  0  0
  5  7  1  0  0  0  0
  5  4  2  0  0  0  0
  6  5  1  0  0  0  0
  7  9  2  0  0  0  0
  8  7  1  0  0  0  0
  9  2  1  0  0  0  0
  9 10  1  0  0  0  0
 10 11  1  0  0  0  0
 12 10  2  0  0  0  0
 12 22  1  0  0  0  0
 13 14  2  0  0  0  0
 13 22  1  0  0  0  0
 14 16  1  0  0  0  0
 15 14  1  0  0  0  0
 16 17  1  0  0  0  0
 16 18  2  0  0  0  0
 18 19  1  0  0  0  0
 20 18  1  0  0  0  0
 20 21  1  0  0  0  0
 22 20  2  0  0  0  0
 23  3  1  0  0  0  0
 23 26  1  0  0  0  0
 24 23  1  0  0  0  0
 25 23  1  0  0  0  0
 26 29  1  0  0  0  0
 26 27  1  0  0  0  0
 28 26  1  0  0  0  0
M  END
