2
 OpenBabel05122313113D

 27 29  0  0  1  0  0  0  0  0999 V2000
   -0.6581   -0.0001   -0.1836 N   0  0  0  0  0  2  0  0  0  0  0  0
    0.5222   -0.0000   -0.1014 C   0  0  0  0  0  1  0  0  0  0  0  0
   -2.0749   -0.0001   -0.0995 C   0  0  1  0  0  0  0  0  0  0  0  0
   -2.6424    1.2635   -0.7923 C   0  0  0  0  0  0  0  0  0  0  0  0
   -2.6424   -1.2639   -0.7919 C   0  0  0  0  0  0  0  0  0  0  0  0
   -2.5024    0.0002    1.3908 C   0  0  0  0  0  0  0  0  0  0  0  0
   -4.1785    1.2589   -0.6911 C   0  0  1  0  0  0  0  0  0  0  0  0
   -4.7368   -0.0003   -1.3828 C   0  0  0  0  0  0  0  0  0  0  0  0
   -4.1785   -1.2592   -0.6906 C   0  0  2  0  0  0  0  0  0  0  0  0
   -4.5955   -1.2592    0.7935 C   0  0  0  0  0  0  0  0  0  0  0  0
   -4.0388    0.0002    1.4862 C   0  0  2  0  0  0  0  0  0  0  0  0
   -4.5955    1.2594    0.7930 C   0  0  0  0  0  0  0  0  0  0  0  0
   -2.3112    1.2742   -1.8516 H   0  0  0  0  0  0  0  0  0  0  0  0
   -2.2086    2.1616   -0.3063 H   0  0  0  0  0  0  0  0  0  0  0  0
   -2.3112   -1.2750   -1.8511 H   0  0  0  0  0  0  0  0  0  0  0  0
   -2.2085   -2.1618   -0.3055 H   0  0  0  0  0  0  0  0  0  0  0  0
   -2.0695    0.8951    1.8848 H   0  0  0  0  0  0  0  0  0  0  0  0
   -2.0695   -0.8945    1.8851 H   0  0  0  0  0  0  0  0  0  0  0  0
   -4.5744    2.1679   -1.1911 H   0  0  0  0  0  0  0  0  0  0  0  0
   -5.8467   -0.0003   -1.3360 H   0  0  0  0  0  0  0  0  0  0  0  0
   -4.4583   -0.0005   -2.4585 H   0  0  0  0  0  0  0  0  0  0  0  0
   -4.5744   -2.1684   -1.1903 H   0  0  0  0  0  0  0  0  0  0  0  0
   -4.2132   -2.1727    1.2974 H   0  0  0  0  0  0  0  0  0  0  0  0
   -5.7030   -1.2822    0.8779 H   0  0  0  0  0  0  0  0  0  0  0  0
   -4.3334    0.0004    2.5569 H   0  0  0  0  0  0  0  0  0  0  0  0
   -5.7030    1.2824    0.8774 H   0  0  0  0  0  0  0  0  0  0  0  0
   -4.2132    2.1731    1.2966 H   0  0  0  0  0  0  0  0  0  0  0  0
  1  2  1  0  0  0  0
  3  1  1  6  0  0  0
  3  6  1  0  0  0  0
  4  7  1  0  0  0  0
  4 14  1  0  0  0  0
  4  3  1  0  0  0  0
  5  9  1  0  0  0  0
  5 16  1  0  0  0  0
  5  3  1  0  0  0  0
  6 11  1  0  0  0  0
  6 17  1  0  0  0  0
  6 18  1  0  0  0  0
  7 19  1  6  0  0  0
  7 12  1  0  0  0  0
  8 20  1  0  0  0  0
  8  7  1  0  0  0  0
  8  9  1  0  0  0  0
  9 22  1  6  0  0  0
  9 10  1  0  0  0  0
 10 24  1  0  0  0  0
 10 23  1  0  0  0  0
 10 11  1  0  0  0  0
 11 25  1  1  0  0  0
 12 26  1  0  0  0  0
 12 27  1  0  0  0  0
 12 11  1  0  0  0  0
 13  4  1  0  0  0  0
 15  5  1  0  0  0  0
 21  8  1  0  0  0  0
M  END
