3
 OpenBabel05122313113D

 18 18  0  0  0  0  0  0  0  0999 V2000
   -3.8727    0.0021    1.9470 O   0  0  0  0  0  0  0  0  0  0  0  0
   -1.7312    0.0020    1.0876 N   0  0  0  0  0  0  0  0  0  0  0  0
   -0.7153    0.0040   -1.0859 C   0  0  0  0  0  3  0  0  0  0  0  0
   -1.9121    0.0049   -0.3138 C   0  0  0  0  0  0  0  0  0  0  0  0
   -3.1825    0.0084   -0.9256 C   0  0  0  0  0  0  0  0  0  0  0  0
   -3.2697    0.0111   -2.3266 C   0  0  0  0  0  0  0  0  0  0  0  0
   -2.1070    0.0104   -3.1116 C   0  0  0  0  0  0  0  0  0  0  0  0
   -0.8441    0.0070   -2.4878 C   0  0  0  0  0  0  0  0  0  0  0  0
   -2.6549    0.0004    2.1116 C   0  0  0  0  0  0  0  0  0  0  0  0
   -2.0278   -0.0036    3.5028 C   0  0  0  0  0  0  0  0  0  0  0  0
   -4.0750    0.0088   -0.2873 H   0  0  0  0  0  0  0  0  0  0  0  0
   -4.2611    0.0138   -2.8046 H   0  0  0  0  0  0  0  0  0  0  0  0
    0.0629    0.0065   -3.1162 H   0  0  0  0  0  0  0  0  0  0  0  0
   -2.1769    0.0126   -4.2106 H   0  0  0  0  0  0  0  0  0  0  0  0
   -0.7300   -0.0002    1.3343 H   0  0  0  0  0  0  0  0  0  0  0  0
   -0.9198   -0.0047    3.5010 H   0  0  0  0  0  0  0  0  0  0  0  0
   -2.3884    0.8845    4.0586 H   0  0  0  0  0  0  0  0  0  0  0  0
   -2.3904   -0.8934    4.0545 H   0  0  0  0  0  0  0  0  0  0  0  0
  1  9  2  0  0  0  0
  2 15  1  0  0  0  0
  2  9  1  0  0  0  0
  3  4  1  0  0  0  0
  4  2  1  0  0  0  0
  5  4  2  0  0  0  0
  5 11  1  0  0  0  0
  6  5  1  0  0  0  0
  7  8  1  0  0  0  0
  7  6  2  0  0  0  0
  8  3  2  0  0  0  0
  9 10  1  0  0  0  0
 10 18  1  0  0  0  0
 10 17  1  0  0  0  0
 12  6  1  0  0  0  0
 13  8  1  0  0  0  0
 14  7  1  0  0  0  0
 16 10  1  0  0  0  0
M  END
