7
 OpenBabel05122313113D

 81 87  0  0  0  0  0  0  0  0999 V2000
   -2.8804    0.7503    0.8324 S   0  0  0  0  0  0  0  0  0  0  0  0
   -6.3524    3.1866   -0.2744 S   0  0  0  0  0  0  0  0  0  0  0  0
    0.9581    3.0152   -0.7749 S   0  0  0  0  0  0  0  0  0  0  0  0
    3.7434    6.2985    0.1162 S   0  0  0  0  0  0  0  0  0  0  0  0
   -0.6037   -1.4113   -0.3698 N   0  0  0  0  0  0  0  0  0  0  0  0
    1.5071   -0.9847   -0.2005 N   0  0  0  0  0  0  0  0  0  0  0  0
    0.6104   -2.0218   -0.2537 C   0  0  0  0  0  2  0  0  0  0  0  0
   -0.4916   -0.0073   -0.3868 C   0  0  0  0  0  0  0  0  0  0  0  0
    0.8693    0.2700   -0.2604 C   0  0  0  0  0  0  0  0  0  0  0  0
   -1.8558   -2.0984   -0.4708 C   0  0  0  0  0  0  0  0  0  0  0  0
   -2.2700   -2.9575    0.5585 C   0  0  0  0  0  0  0  0  0  0  0  0
   -1.5975   -3.1542    1.4058 H   0  0  0  0  0  0  0  0  0  0  0  0
   -3.5457   -3.5316    0.4986 C   0  0  0  0  0  0  0  0  0  0  0  0
   -3.8755   -4.1943    1.3138 H   0  0  0  0  0  0  0  0  0  0  0  0
   -4.4230   -3.2554   -0.5701 C   0  0  0  0  0  0  0  0  0  0  0  0
   -3.9615   -2.4283   -1.6142 C   0  0  0  0  0  0  0  0  0  0  0  0
   -4.6216   -2.2204   -2.4702 H   0  0  0  0  0  0  0  0  0  0  0  0
   -2.6878   -1.8524   -1.5736 C   0  0  0  0  0  0  0  0  0  0  0  0
   -2.3413   -1.1952   -2.3830 H   0  0  0  0  0  0  0  0  0  0  0  0
   -5.8506   -3.7453   -0.5439 C   0  0  0  0  0  0  0  0  0  0  0  0
   -6.2505   -3.7786   -1.5796 H   0  0  0  0  0  0  0  0  0  0  0  0
   -5.8854   -4.7838   -0.1538 H   0  0  0  0  0  0  0  0  0  0  0  0
   -6.7621   -2.8502    0.3244 C   0  0  0  0  0  0  0  0  0  0  0  0
   -7.7836   -3.2906    0.3337 H   0  0  0  0  0  0  0  0  0  0  0  0
   -6.4050   -2.8862    1.3781 H   0  0  0  0  0  0  0  0  0  0  0  0
   -6.8398   -1.3889   -0.1290 C   0  0  0  0  0  0  0  0  0  0  0  0
   -7.1537   -1.3537   -1.1969 H   0  0  0  0  0  0  0  0  0  0  0  0
   -5.8239   -0.9381   -0.1014 H   0  0  0  0  0  0  0  0  0  0  0  0
   -7.7914   -0.5427    0.7156 C   0  0  0  0  0  0  0  0  0  0  0  0
   -8.8294   -0.9355    0.6786 H   0  0  0  0  0  0  0  0  0  0  0  0
   -7.8130    0.5102    0.3710 H   0  0  0  0  0  0  0  0  0  0  0  0
   -7.4796   -0.5306    1.7809 H   0  0  0  0  0  0  0  0  0  0  0  0
    2.9239   -1.1999   -0.1775 C   0  0  0  0  0  0  0  0  0  0  0  0
    3.4941   -1.9673    0.8499 C   0  0  0  0  0  0  0  0  0  0  0  0
    2.8501   -2.3895    1.6345 H   0  0  0  0  0  0  0  0  0  0  0  0
    4.8768   -2.1929    0.8534 C   0  0  0  0  0  0  0  0  0  0  0  0
    5.3189   -2.8066    1.6535 H   0  0  0  0  0  0  0  0  0  0  0  0
    5.7078   -1.6577   -0.1512 C   0  0  0  0  0  0  0  0  0  0  0  0
    5.1086   -0.8904   -1.1721 C   0  0  0  0  0  0  0  0  0  0  0  0
    5.7372   -0.4737   -1.9746 H   0  0  0  0  0  0  0  0  0  0  0  0
    3.7278   -0.6648   -1.1965 C   0  0  0  0  0  0  0  0  0  0  0  0
    3.2669   -0.0775   -2.0034 H   0  0  0  0  0  0  0  0  0  0  0  0
    7.2038   -1.8522   -0.1056 C   0  0  0  0  0  0  0  0  0  0  0  0
    7.6076   -1.8827   -1.1402 H   0  0  0  0  0  0  0  0  0  0  0  0
    7.4377   -2.8369    0.3520 H   0  0  0  0  0  0  0  0  0  0  0  0
    7.9235   -0.7439    0.6840 C   0  0  0  0  0  0  0  0  0  0  0  0
    7.5117   -0.7096    1.7174 H   0  0  0  0  0  0  0  0  0  0  0  0
    7.6767    0.2426    0.2316 H   0  0  0  0  0  0  0  0  0  0  0  0
    9.4432   -0.9211    0.7396 C   0  0  0  0  0  0  0  0  0  0  0  0
    9.6777   -1.9125    1.1872 H   0  0  0  0  0  0  0  0  0  0  0  0
    9.8431   -0.9609   -0.2982 H   0  0  0  0  0  0  0  0  0  0  0  0
   10.1528    0.1820    1.5252 C   0  0  0  0  0  0  0  0  0  0  0  0
    9.9645    1.1806    1.0782 H   0  0  0  0  0  0  0  0  0  0  0  0
   11.2504    0.0281    1.5486 H   0  0  0  0  0  0  0  0  0  0  0  0
    9.7982    0.2201    2.5765 H   0  0  0  0  0  0  0  0  0  0  0  0
   -1.6556    0.8654   -0.4194 C   0  0  0  0  0  0  0  0  0  0  0  0
   -2.0255    1.8079   -1.3744 C   0  0  0  0  0  0  0  0  0  0  0  0
   -1.4156    2.0145   -2.2639 H   0  0  0  0  0  0  0  0  0  0  0  0
   -3.2671    2.4362   -1.0966 C   0  0  0  0  0  0  0  0  0  0  0  0
   -3.7188    3.2150   -1.7262 H   0  0  0  0  0  0  0  0  0  0  0  0
   -3.8693    1.9750    0.0741 C   0  0  0  0  0  0  0  0  0  0  0  0
   -5.1264    2.3713    0.6766 C   0  0  0  0  0  0  0  0  0  0  0  0
   -5.5629    2.2062    1.9896 C   0  0  0  0  0  0  0  0  0  0  0  0
   -4.9446    1.7272    2.7616 H   0  0  0  0  0  0  0  0  0  0  0  0
   -6.8600    2.7449    2.2218 C   0  0  0  0  0  0  0  0  0  0  0  0
   -7.3729    2.7174    3.1926 H   0  0  0  0  0  0  0  0  0  0  0  0
   -7.4109    3.3166    1.0895 C   0  0  0  0  0  0  0  0  0  0  0  0
   -8.3870    3.8033    0.9757 H   0  0  0  0  0  0  0  0  0  0  0  0
    1.5602    1.5293   -0.0663 C   0  0  0  0  0  0  0  0  0  0  0  0
    2.7179    1.7809    0.6745 C   0  0  0  0  0  0  0  0  0  0  0  0
    3.2615    0.9964    1.2149 H   0  0  0  0  0  0  0  0  0  0  0  0
    3.0945    3.1449    0.6823 C   0  0  0  0  0  0  0  0  0  0  0  0
    3.9594    3.5377    1.2346 H   0  0  0  0  0  0  0  0  0  0  0  0
    2.2396    3.9637   -0.0565 C   0  0  0  0  0  0  0  0  0  0  0  0
    2.2914    5.3940   -0.2672 C   0  0  0  0  0  0  0  0  0  0  0  0
    1.3077    6.2474   -0.7658 C   0  0  0  0  0  0  0  0  0  0  0  0
    0.3090    5.8920   -1.0562 H   0  0  0  0  0  0  0  0  0  0  0  0
    1.7235    7.6073   -0.8280 C   0  0  0  0  0  0  0  0  0  0  0  0
    1.0888    8.4292   -1.1859 H   0  0  0  0  0  0  0  0  0  0  0  0
    3.0186    7.7904   -0.3780 C   0  0  0  0  0  0  0  0  0  0  0  0
    3.5927    8.7222   -0.3094 H   0  0  0  0  0  0  0  0  0  0  0  0
  2 62  1  0  0  0  0
  2 67  1  0  0  0  0
  3 69  1  0  0  0  0
  3 74  1  0  0  0  0
  5  7  1  0  0  0  0
  6 33  1  0  0  0  0
  7  6  1  0  0  0  0
  8  5  1  0  0  0  0
  8  9  2  0  0  0  0
  9  6  1  0  0  0  0
  9 69  1  0  0  0  0
 10  5  1  0  0  0  0
 10 11  1  0  0  0  0
 11 12  1  0  0  0  0
 13 11  2  0  0  0  0
 13 14  1  0  0  0  0
 15 20  1  0  0  0  0
 15 13  1  0  0  0  0
 16 18  1  0  0  0  0
 16 15  2  0  0  0  0
 17 16  1  0  0  0  0
 18 10  2  0  0  0  0
 19 18  1  0  0  0  0
 20 22  1  0  0  0  0
 20 23  1  0  0  0  0
 21 20  1  0  0  0  0
 23 24  1  0  0  0  0
 23 25  1  0  0  0  0
 26 28  1  0  0  0  0
 26 23  1  0  0  0  0
 26 29  1  0  0  0  0
 27 26  1  0  0  0  0
 29 32  1  0  0  0  0
 30 29  1  0  0  0  0
 31 29  1  0  0  0  0
 33 34  1  0  0  0  0
 34 36  2  0  0  0  0
 34 35  1  0  0  0  0
 36 37  1  0  0  0  0
 38 43  1  0  0  0  0
 38 36  1  0  0  0  0
 39 38  2  0  0  0  0
 40 39  1  0  0  0  0
 41 39  1  0  0  0  0
 41 33  2  0  0  0  0
 42 41  1  0  0  0  0
 43 45  1  0  0  0  0
 43 46  1  0  0  0  0
 44 43  1  0  0  0  0
 46 49  1  0  0  0  0
 46 47  1  0  0  0  0
 48 46  1  0  0  0  0
 49 50  1  0  0  0  0
 49 52  1  0  0  0  0
 51 49  1  0  0  0  0
 52 54  1  0  0  0  0
 52 55  1  0  0  0  0
 53 52  1  0  0  0  0
 56  8  1  0  0  0  0
 56  1  1  0  0  0  0
 57 59  1  0  0  0  0
 57 56  2  0  0  0  0
 58 57  1  0  0  0  0
 59 61  2  0  0  0  0
 60 59  1  0  0  0  0
 61 62  1  0  0  0  0
 61  1  1  0  0  0  0
 62 63  2  0  0  0  0
 63 65  1  0  0  0  0
 63 64  1  0  0  0  0
 65 66  1  0  0  0  0
 67 65  2  0  0  0  0
 68 67  1  0  0  0  0
 69 70  2  0  0  0  0
 70 72  1  0  0  0  0
 70 71  1  0  0  0  0
 72 73  1  0  0  0  0
 74 72  2  0  0  0  0
 75 74  1  0  0  0  0
 75  4  1  0  0  0  0
 76 75  2  0  0  0  0
 77 76  1  0  0  0  0
 78 76  1  0  0  0  0
 78 80  2  0  0  0  0
 79 78  1  0  0  0  0
 80 81  1  0  0  0  0
 80  4  1  0  0  0  0
M  END
