3
 OpenBabel05122313113D

 38 39  0  0  0  0  0  0  0  0999 V2000
   -2.5473   -0.4482    0.0439 C   0  0  0  0  0  0  0  0  0  0  0  0
   -2.0390   -1.2390    1.1271 C   0  0  0  0  0  0  0  0  0  0  0  0
   -1.5231   -0.3616    2.1281 C   0  0  0  0  0  3  0  0  0  0  0  0
   -1.1247   -0.6724    3.0986 H   0  0  0  0  0  0  0  0  0  0  0  0
   -1.5821    2.2353    2.4158 C   0  0  0  0  0  0  0  0  0  0  0  0
   -2.0066    3.3853    1.7613 C   0  0  0  0  0  0  0  0  0  0  0  0
   -1.8845    4.3593    2.2613 H   0  0  0  0  0  0  0  0  0  0  0  0
   -2.6309    3.3440    0.4840 C   0  0  0  0  0  0  0  0  0  0  0  0
   -2.9455    4.2927    0.0220 H   0  0  0  0  0  0  0  0  0  0  0  0
   -2.8726    2.1610   -0.2050 C   0  0  0  0  0  0  0  0  0  0  0  0
   -2.4460    0.9439    0.4297 C   0  0  0  0  0  0  0  0  0  0  0  0
   -1.7928    0.9938    1.7285 C   0  0  0  0  0  0  0  0  0  0  0  0
   -3.2340   -1.0323   -1.1651 C   0  0  0  0  0  0  0  0  0  0  0  0
   -2.8172   -2.0494   -1.3292 H   0  0  0  0  0  0  0  0  0  0  0  0
   -2.9643   -0.4684   -2.0769 H   0  0  0  0  0  0  0  0  0  0  0  0
   -4.7308   -1.1180   -0.9894 C   0  0  0  0  0  0  0  0  0  0  0  0
   -5.0671   -1.3936    0.0268 H   0  0  0  0  0  0  0  0  0  0  0  0
   -5.6863   -0.9115   -1.9280 C   0  0  0  0  0  0  0  0  0  0  0  0
   -5.3990   -0.5472   -3.3616 C   0  0  0  0  0  0  0  0  0  0  0  0
   -4.3240   -0.3908   -3.5680 H   0  0  0  0  0  0  0  0  0  0  0  0
   -5.9448    0.3768   -3.6525 H   0  0  0  0  0  0  0  0  0  0  0  0
   -5.7588   -1.3462   -4.0463 H   0  0  0  0  0  0  0  0  0  0  0  0
   -7.1483   -1.0511   -1.5872 C   0  0  0  0  0  0  0  0  0  0  0  0
   -7.6364   -1.8238   -2.2211 H   0  0  0  0  0  0  0  0  0  0  0  0
   -7.6954   -0.1024   -1.7818 H   0  0  0  0  0  0  0  0  0  0  0  0
   -7.3038   -1.3266   -0.5260 H   0  0  0  0  0  0  0  0  0  0  0  0
   -2.0665   -2.7377    1.2036 C   0  0  0  0  0  0  0  0  0  0  0  0
   -1.4237   -3.1123    2.0218 H   0  0  0  0  0  0  0  0  0  0  0  0
   -1.7170   -3.2003    0.2601 H   0  0  0  0  0  0  0  0  0  0  0  0
   -3.1013   -3.0943    1.3914 H   0  0  0  0  0  0  0  0  0  0  0  0
   -1.0510    2.2623    3.8225 C   0  0  0  0  0  0  0  0  0  0  0  0
   -0.0475    1.7985    3.9093 H   0  0  0  0  0  0  0  0  0  0  0  0
   -1.7169    1.6956    4.5087 H   0  0  0  0  0  0  0  0  0  0  0  0
   -0.9746    3.2988    4.2031 H   0  0  0  0  0  0  0  0  0  0  0  0
   -3.5230    2.1712   -1.5571 C   0  0  0  0  0  0  0  0  0  0  0  0
   -3.8398    3.1946   -1.8346 H   0  0  0  0  0  0  0  0  0  0  0  0
   -4.4087    1.5058   -1.5902 H   0  0  0  0  0  0  0  0  0  0  0  0
   -2.8079    1.8177   -2.3293 H   0  0  0  0  0  0  0  0  0  0  0  0
  1 11  1  0  0  0  0
  1  2  2  0  0  0  0
  2 27  1  0  0  0  0
  2  3  1  0  0  0  0
  3  4  1  0  0  0  0
  5 31  1  0  0  0  0
  6  7  1  0  0  0  0
  6  5  1  0  0  0  0
  8  6  2  0  0  0  0
  9  8  1  0  0  0  0
 10 11  2  0  0  0  0
 10  8  1  0  0  0  0
 11 12  1  0  0  0  0
 12  3  1  0  0  0  0
 12  5  2  0  0  0  0
 13 16  1  0  0  0  0
 13  1  1  0  0  0  0
 14 13  1  0  0  0  0
 15 13  1  0  0  0  0
 16 17  1  0  0  0  0
 18 23  1  0  0  0  0
 18 16  2  0  0  0  0
 19 18  1  0  0  0  0
 20 19  1  0  0  0  0
 21 19  1  0  0  0  0
 22 19  1  0  0  0  0
 23 26  1  0  0  0  0
 24 23  1  0  0  0  0
 25 23  1  0  0  0  0
 27 30  1  0  0  0  0
 27 28  1  0  0  0  0
 29 27  1  0  0  0  0
 31 32  1  0  0  0  0
 31 34  1  0  0  0  0
 31 33  1  0  0  0  0
 35 10  1  0  0  0  0
 36 35  1  0  0  0  0
 37 35  1  0  0  0  0
 38 35  1  0  0  0  0
M  END
