1
 OpenBabel05122313113D

 17 17  0  0  0  0  0  0  0  0999 V2000
   -2.0472    0.0003   -0.6058 C   0  0  0  0  0  3  0  0  0  0  0  0
   -2.8208   -1.4995   -0.0129 S   0  0  0  0  0  0  0  0  0  0  0  0
   -2.8210    1.4994   -0.0116 S   0  0  0  0  0  0  0  0  0  0  0  0
   -2.1271    0.0008   -1.7112 H   0  0  0  0  0  0  0  0  0  0  0  0
   -2.3649   -2.6192   -0.8765 O   0  0  0  0  0  0  0  0  0  0  0  0
   -2.7283   -1.5863    1.4661 O   0  0  0  0  0  0  0  0  0  0  0  0
   -4.6135   -1.2764   -0.3715 C   0  0  0  0  0  0  0  0  0  0  0  0
   -2.3653    2.6199   -0.8742 O   0  0  0  0  0  0  0  0  0  0  0  0
   -2.7286    1.5850    1.4675 O   0  0  0  0  0  0  0  0  0  0  0  0
   -4.6137    1.2764   -0.3704 C   0  0  0  0  0  0  0  0  0  0  0  0
   -5.1810   -0.0003    0.2478 C   0  0  0  0  0  0  0  0  0  0  0  0
   -4.7136   -1.3039   -1.4760 H   0  0  0  0  0  0  0  0  0  0  0  0
   -5.0701   -2.1917    0.0542 H   0  0  0  0  0  0  0  0  0  0  0  0
   -4.7138    1.3048   -1.4749 H   0  0  0  0  0  0  0  0  0  0  0  0
   -5.0705    2.1912    0.0561 H   0  0  0  0  0  0  0  0  0  0  0  0
   -6.2867   -0.0004    0.1325 H   0  0  0  0  0  0  0  0  0  0  0  0
   -4.9621   -0.0008    1.3367 H   0  0  0  0  0  0  0  0  0  0  0  0
  1  2  1  0  0  0  0
  1  3  1  0  0  0  0
  2  6  2  0  0  0  0
  3  9  2  0  0  0  0
  4  1  1  0  0  0  0
  5  2  2  0  0  0  0
  7  2  1  0  0  0  0
  7 13  1  0  0  0  0
  7 11  1  0  0  0  0
  8  3  2  0  0  0  0
 10  3  1  0  0  0  0
 10 15  1  0  0  0  0
 10 11  1  0  0  0  0
 11 17  1  0  0  0  0
 12  7  1  0  0  0  0
 14 10  1  0  0  0  0
 16 11  1  0  0  0  0
M  END
