8
 OpenBabel05122313113D

 40 47  0  0  1  0  0  0  0  0999 V2000
    2.0515    0.5000    0.0305 C   0  0  1  0  0  0  0  0  0  0  0  0
    0.8494   -0.6873   -0.0424 C   0  0  1  0  0  0  0  0  0  0  0  0
    1.5679    1.9883    0.1998 C   0  0  0  0  0  0  0  0  0  0  0  0
    2.0099    2.8507   -1.0004 C   0  0  0  0  0  0  0  0  0  0  0  0
    2.1769    2.6264    1.4676 C   0  0  0  0  0  0  0  0  0  0  0  0
    0.0416    2.0263    0.3155 C   0  0  0  0  0  0  0  0  0  0  0  0
   -0.7237    1.8478    1.5180 C   0  0  0  0  0  0  0  0  0  0  0  0
   -2.1028    2.0216    1.2167 C   0  0  0  0  0  3  0  0  0  0  0  0
   -2.2051    2.3099   -0.1789 C   0  0  0  0  0  0  0  0  0  0  0  0
   -0.8879    2.3352   -0.7234 C   0  0  0  0  0  0  0  0  0  0  0  0
    1.8152   -0.5538    1.3585 B   0  0  1  0  0  0  0  0  0  0  0  0
    3.4517   -0.1175    0.8076 B   0  0  1  0  0  0  0  0  0  0  0  0
    3.3840    0.0597   -0.9553 B   0  0  1  0  0  0  0  0  0  0  0  0
    1.7052   -0.2716   -1.4601 B   0  0  2  0  0  0  0  0  0  0  0  0
    1.4077   -2.1348    0.6813 B   0  0  2  0  0  0  0  0  0  0  0  0
    3.0726   -1.8067    1.2198 B   0  0  1  0  0  0  0  0  0  0  0  0
    4.0439   -1.4293   -0.2362 B   0  0  2  0  0  0  0  0  0  0  0  0
    2.9641   -1.5188   -1.6603 B   0  0  0  0  0  0  0  0  0  0  0  0
    1.3472   -1.9587   -1.0706 B   0  0  1  0  0  0  0  0  0  0  0  0
    2.7842   -2.6853   -0.3120 B   0  0  2  0  0  0  0  0  0  0  0  0
    1.5890    3.8691   -0.8936 H   0  0  0  0  0  0  0  0  0  0  0  0
    1.6755    2.4318   -1.9664 H   0  0  0  0  0  0  0  0  0  0  0  0
    3.1113    2.9327   -1.0334 H   0  0  0  0  0  0  0  0  0  0  0  0
    1.7389    3.6328    1.6139 H   0  0  0  0  0  0  0  0  0  0  0  0
    3.2719    2.7352    1.3626 H   0  0  0  0  0  0  0  0  0  0  0  0
    1.9834    2.0268    2.3754 H   0  0  0  0  0  0  0  0  0  0  0  0
   -0.3128    1.6139    2.5068 H   0  0  0  0  0  0  0  0  0  0  0  0
   -2.9342    1.9502    1.9286 H   0  0  0  0  0  0  0  0  0  0  0  0
   -3.1355    2.5003   -0.7278 H   0  0  0  0  0  0  0  0  0  0  0  0
   -0.6337    2.5238   -1.7722 H   0  0  0  0  0  0  0  0  0  0  0  0
    1.3342   -0.1215    2.3761 H   0  0  0  0  0  0  0  0  0  0  0  0
    4.1137    0.6304    1.4801 H   0  0  0  0  0  0  0  0  0  0  0  0
    4.0022    0.9305   -1.5120 H   0  0  0  0  0  0  0  0  0  0  0  0
    1.1354    0.3425   -2.3268 H   0  0  0  0  0  0  0  0  0  0  0  0
    0.6012   -2.8143    1.2711 H   0  0  0  0  0  0  0  0  0  0  0  0
    3.5272   -2.3178    2.2168 H   0  0  0  0  0  0  0  0  0  0  0  0
    5.2273   -1.6701   -0.3047 H   0  0  0  0  0  0  0  0  0  0  0  0
    3.3383   -1.8254   -2.7685 H   0  0  0  0  0  0  0  0  0  0  0  0
    0.5107   -2.5265   -1.7286 H   0  0  0  0  0  0  0  0  0  0  0  0
    3.0302   -3.8625   -0.4404 H   0  0  0  0  0  0  0  0  0  0  0  0
  1  3  1  1  0  0  0
  1 11  1  0  0  0  0
  2  1  1  0  0  0  0
  2 11  1  0  0  0  0
  3  6  1  0  0  0  0
  3  5  1  0  0  0  0
  4 21  1  0  0  0  0
  4  3  1  0  0  0  0
  5 24  1  0  0  0  0
  5 26  1  0  0  0  0
  6  7  2  0  0  0  0
  7 27  1  0  0  0  0
  8  7  1  0  0  0  0
  8 28  1  0  0  0  0
  9  8  1  0  0  0  0
 10  9  2  0  0  0  0
 10  6  1  0  0  0  0
 11 31  1  0  0  0  0
 12 16  1  0  0  0  0
 12 32  1  0  0  0  0
 13 17  1  0  0  0  0
 13 12  1  0  0  0  0
 14 19  1  0  0  0  0
 14  2  1  0  0  0  0
 14  1  1  0  0  0  0
 15 16  1  0  0  0  0
 15 35  1  0  0  0  0
 15 11  1  0  0  0  0
 16 36  1  0  0  0  0
 17 12  1  0  0  0  0
 18 13  1  0  0  0  0
 18 20  1  0  0  0  0
 19  2  1  0  0  0  0
 19 15  1  0  0  0  0
 20 17  1  0  0  0  0
 20 16  1  0  0  0  0
 22  4  1  0  0  0  0
 23  4  1  0  0  0  0
 25  5  1  0  0  0  0
 29  9  1  0  0  0  0
 30 10  1  0  0  0  0
 33 13  1  0  0  0  0
 34 14  1  0  0  0  0
 37 17  1  0  0  0  0
 38 18  1  0  0  0  0
 39 19  1  0  0  0  0
 40 20  1  0  0  0  0
M  END
