10
 OpenBabel05122313113D

 40 47  0  0  1  0  0  0  0  0999 V2000
   -2.5223   -1.4226    0.8813 Si  0  0  0  0  0  0  0  0  0  0  0  0
   -2.4393    0.2515   -0.0595 C   0  0  0  0  0  0  0  0  0  0  0  0
   -0.8879    0.8593   -0.3760 C   0  0  1  0  0  0  0  0  0  0  0  0
   -3.1227   -2.7843   -0.2694 C   0  0  0  0  0  0  0  0  0  0  0  0
   -3.6402   -1.2412    2.3818 C   0  0  0  0  0  0  0  0  0  0  0  0
   -0.7496   -1.7659    1.4007 C   0  0  0  0  0  0  0  0  0  0  0  0
    0.1385   -2.7133    0.8010 C   0  0  0  0  0  0  0  0  0  0  0  0
    1.4137   -2.6112    1.4250 C   0  0  0  0  0  0  0  0  0  0  0  0
    1.3226   -1.6270    2.4566 C   0  0  0  0  0  0  0  0  0  0  0  0
    0.0006   -1.1070    2.4394 C   0  0  0  0  0  3  0  0  0  0  0  0
   -1.8666    1.5789    0.8350 B   0  0  1  0  0  0  0  0  0  0  0  0
   -3.5546    1.5045    0.2585 B   0  0  1  0  0  0  0  0  0  0  0  0
   -3.5402    0.6533   -1.2957 B   0  0  1  0  0  0  0  0  0  0  0  0
   -1.8410    0.2236   -1.6531 B   0  0  2  0  0  0  0  0  0  0  0  0
   -0.9467    2.5743   -0.3028 B   0  0  2  0  0  0  0  0  0  0  0  0
   -2.6289    3.0115    0.0901 B   0  0  1  0  0  0  0  0  0  0  0  0
   -3.6672    2.4311   -1.2545 B   0  0  0  0  0  0  0  0  0  0  0  0
   -2.6085    1.6250   -2.4562 B   0  0  0  0  0  0  0  0  0  0  0  0
   -0.9403    1.7343   -1.8505 B   0  0  1  0  0  0  0  0  0  0  0  0
   -2.0542    3.0994   -1.6011 B   0  0  2  0  0  0  0  0  0  0  0  0
   -3.1398   -3.7556    0.2653 H   0  0  0  0  0  0  0  0  0  0  0  0
   -2.4716   -2.8839   -1.1599 H   0  0  0  0  0  0  0  0  0  0  0  0
   -4.1490   -2.5656   -0.6252 H   0  0  0  0  0  0  0  0  0  0  0  0
   -3.6093   -2.1695    2.9877 H   0  0  0  0  0  0  0  0  0  0  0  0
   -4.6885   -1.0580    2.0739 H   0  0  0  0  0  0  0  0  0  0  0  0
   -3.3203   -0.3952    3.0212 H   0  0  0  0  0  0  0  0  0  0  0  0
   -0.1167   -3.3813   -0.0304 H   0  0  0  0  0  0  0  0  0  0  0  0
    2.3090   -3.1953    1.1765 H   0  0  0  0  0  0  0  0  0  0  0  0
    2.1295   -1.3316    3.1376 H   0  0  0  0  0  0  0  0  0  0  0  0
   -0.3900   -0.3302    3.1092 H   0  0  0  0  0  0  0  0  0  0  0  0
   -1.5835    1.4320    2.0003 H   0  0  0  0  0  0  0  0  0  0  0  0
   -4.4219    1.2952    1.0712 H   0  0  0  0  0  0  0  0  0  0  0  0
   -4.4001   -0.1505   -1.5678 H   0  0  0  0  0  0  0  0  0  0  0  0
   -1.5236   -0.8267   -2.1559 H   0  0  0  0  0  0  0  0  0  0  0  0
    0.0310    3.1602    0.0929 H   0  0  0  0  0  0  0  0  0  0  0  0
   -2.8863    3.9813    0.7655 H   0  0  0  0  0  0  0  0  0  0  0  0
   -4.6953    2.9878   -1.5663 H   0  0  0  0  0  0  0  0  0  0  0  0
   -2.8460    1.5889   -3.6415 H   0  0  0  0  0  0  0  0  0  0  0  0
    0.0328    1.7448   -2.5612 H   0  0  0  0  0  0  0  0  0  0  0  0
   -1.8820    4.1508   -2.1751 H   0  0  0  0  0  0  0  0  0  0  0  0
  1  6  1  0  0  0  0
  1  5  1  0  0  0  0
  1  2  1  0  0  0  0
  2 11  1  0  0  0  0
  3  2  1  6  0  0  0
  3 11  1  0  0  0  0
  4 21  1  0  0  0  0
  4  1  1  0  0  0  0
  5 24  1  0  0  0  0
  5 26  1  0  0  0  0
  6 10  1  0  0  0  0
  7  6  2  0  0  0  0
  7  8  1  0  0  0  0
  8  9  2  0  0  0  0
  9 29  1  0  0  0  0
 10  9  1  0  0  0  0
 10 30  1  0  0  0  0
 11 31  1  1  0  0  0
 12 32  1  1  0  0  0
 13 33  1  6  0  0  0
 13  2  1  0  0  0  0
 13 12  1  0  0  0  0
 14 34  1  6  0  0  0
 14  3  1  0  0  0  0
 14  2  1  0  0  0  0
 15 16  1  0  0  0  0
 15 35  1  1  0  0  0
 15 11  1  0  0  0  0
 16 12  1  0  0  0  0
 16 36  1  1  0  0  0
 17 12  1  0  0  0  0
 18 20  1  0  0  0  0
 18 13  1  0  0  0  0
 19 39  1  6  0  0  0
 19 14  1  0  0  0  0
 19  3  1  0  0  0  0
 19 15  1  0  0  0  0
 20 40  1  6  0  0  0
 20 17  1  0  0  0  0
 20 16  1  0  0  0  0
 22  4  1  0  0  0  0
 23  4  1  0  0  0  0
 25  5  1  0  0  0  0
 27  7  1  0  0  0  0
 28  8  1  0  0  0  0
 37 17  1  0  0  0  0
 38 18  1  0  0  0  0
M  HYD  1  10   0
M  ZBO  1   3   0
M  END
