13
 OpenBabel05122313113D

 46 54  0  0  1  0  0  0  0  0999 V2000
    1.3027    0.4996    0.3194 C   0  0  1  0  0  0  0  0  0  0  0  0
    2.1490   -0.8737   -0.1708 C   0  0  2  0  0  0  0  0  0  0  0  0
    1.3235   -1.9660   -0.9494 C   0  0  0  0  0  0  0  0  0  0  0  0
    1.9300   -2.2036   -2.3519 C   0  0  0  0  0  0  0  0  0  0  0  0
    1.3850   -3.3255   -0.2196 C   0  0  0  0  0  0  0  0  0  0  0  0
   -0.1297   -1.4920   -1.1144 C   0  0  0  0  0  0  0  0  0  0  0  0
   -1.3056   -1.7973   -0.3072 C   0  0  0  0  0  0  0  0  0  0  0  0
   -1.5201   -2.4932    0.9220 C   0  0  0  0  0  0  0  0  0  0  0  0
   -2.8015   -2.5745    1.4546 C   0  0  0  0  0  0  0  0  0  0  0  0
   -3.9148   -1.9520    0.8246 C   0  0  0  0  0  0  0  0  0  0  0  0
   -3.7495   -1.2360   -0.3525 C   0  0  0  0  0  0  0  0  0  0  0  0
   -2.4542   -1.1545   -0.9397 C   0  0  0  0  0  0  0  0  0  0  0  0
   -1.9816   -0.4723   -2.1164 C   0  0  0  0  0  3  0  0  0  0  0  0
   -0.5986   -0.7520   -2.2430 C   0  0  0  0  0  0  0  0  0  0  0  0
    1.7764   -0.6497    1.4849 B   0  0  1  0  0  0  0  0  0  0  0  0
    1.9247    1.0838    1.8028 B   0  0  1  0  0  0  0  0  0  0  0  0
    2.3236    1.8735    0.2788 B   0  0  2  0  0  0  0  0  0  0  0  0
    2.4125    0.6214   -0.9671 B   0  0  2  0  0  0  0  0  0  0  0  0
    3.7680   -0.4640   -0.5612 B   0  0  1  0  0  0  0  0  0  0  0  0
    3.3689   -1.2602    0.9722 B   0  0  2  0  0  0  0  0  0  0  0  0
    3.2569   -0.0132    2.2396 B   0  0  0  0  0  0  0  0  0  0  0  0
    3.6087    1.5679    1.4755 B   0  0  2  0  0  0  0  0  0  0  0  0
    3.9104    1.2848   -0.2662 B   0  0  2  0  0  0  0  0  0  0  0  0
    4.4972    0.1150    0.9554 B   0  0  2  0  0  0  0  0  0  0  0  0
    1.2855   -2.9070   -2.9137 H   0  0  0  0  0  0  0  0  0  0  0  0
    2.9377   -2.6486   -2.2648 H   0  0  0  0  0  0  0  0  0  0  0  0
    2.0282   -1.2722   -2.9371 H   0  0  0  0  0  0  0  0  0  0  0  0
    1.1732   -3.2426    0.8596 H   0  0  0  0  0  0  0  0  0  0  0  0
    2.3940   -3.7654   -0.3202 H   0  0  0  0  0  0  0  0  0  0  0  0
    0.6554   -4.0241   -0.6727 H   0  0  0  0  0  0  0  0  0  0  0  0
   -0.6883   -2.9825    1.4405 H   0  0  0  0  0  0  0  0  0  0  0  0
   -2.9566   -3.1321    2.3903 H   0  0  0  0  0  0  0  0  0  0  0  0
   -4.9130   -2.0391    1.2789 H   0  0  0  0  0  0  0  0  0  0  0  0
   -4.6034   -0.7478   -0.8464 H   0  0  0  0  0  0  0  0  0  0  0  0
   -2.6019    0.0832   -2.8299 H   0  0  0  0  0  0  0  0  0  0  0  0
    0.0415   -0.3880   -3.0540 H   0  0  0  0  0  0  0  0  0  0  0  0
    0.9369   -1.3471    1.9966 H   0  0  0  0  0  0  0  0  0  0  0  0
    1.1478    1.5867    2.5790 H   0  0  0  0  0  0  0  0  0  0  0  0
    1.8366    2.9365   -0.0197 H   0  0  0  0  0  0  0  0  0  0  0  0
    2.0001    0.7774   -2.0886 H   0  0  0  0  0  0  0  0  0  0  0  0
    4.3197   -1.0687   -1.4444 H   0  0  0  0  0  0  0  0  0  0  0  0
    3.6390   -2.4199    1.1544 H   0  0  0  0  0  0  0  0  0  0  0  0
    3.5078   -0.2767    3.3927 H   0  0  0  0  0  0  0  0  0  0  0  0
    4.1254    2.4775    2.0825 H   0  0  0  0  0  0  0  0  0  0  0  0
    4.6407    1.9702   -0.9436 H   0  0  0  0  0  0  0  0  0  0  0  0
    5.6743   -0.0576    1.1740 H   0  0  0  0  0  0  0  0  0  0  0  0
  1 15  1  0  0  0  0
  1 16  1  0  0  0  0
  2  1  1  0  0  0  0
  2 15  1  0  0  0  0
  3  5  1  0  0  0  0
  3  2  1  0  0  0  0
  4 26  1  0  0  0  0
  4  3  1  0  0  0  0
  5 28  1  0  0  0  0
  6  3  1  0  0  0  0
  6  7  1  0  0  0  0
  7  8  1  0  0  0  0
  8 31  1  0  0  0  0
  8  9  2  0  0  0  0
  9 32  1  0  0  0  0
 10 33  1  0  0  0  0
 10  9  1  0  0  0  0
 11 10  2  0  0  0  0
 12 11  1  0  0  0  0
 12  7  2  0  0  0  0
 13 12  1  0  0  0  0
 14 13  1  0  0  0  0
 14  6  2  0  0  0  0
 15 16  1  0  0  0  0
 15 37  1  0  0  0  0
 16 38  1  0  0  0  0
 17 16  1  0  0  0  0
 18  2  1  0  0  0  0
 18 17  1  0  0  0  0
 18  1  1  0  0  0  0
 19 23  1  0  0  0  0
 19 24  1  0  0  0  0
 19 20  1  0  0  0  0
 20 42  1  0  0  0  0
 20 21  1  0  0  0  0
 21 43  1  0  0  0  0
 22 44  1  0  0  0  0
 22 21  1  0  0  0  0
 23 17  1  0  0  0  0
 23 22  1  0  0  0  0
 24 20  1  0  0  0  0
 24 46  1  0  0  0  0
 24 22  1  0  0  0  0
 25  4  1  0  0  0  0
 27  4  1  0  0  0  0
 29  5  1  0  0  0  0
 30  5  1  0  0  0  0
 34 11  1  0  0  0  0
 35 13  1  0  0  0  0
 36 14  1  0  0  0  0
 39 17  1  0  0  0  0
 40 18  1  0  0  0  0
 41 19  1  0  0  0  0
 45 23  1  0  0  0  0
M  END
