3
 OpenBabel05122313113D

 65 68  0  0  1  0  0  0  0  0999 V2000
    0.6408    0.9789    0.6726 N   0  0  0  0  0  0  0  0  0  0  0  0
    1.1446   -0.9226   -0.3143 N   0  0  0  0  0  0  0  0  0  0  0  0
    0.1368   -0.0972    0.0236 C   0  0  0  0  0  2  0  0  0  0  0  0
    2.4677   -0.3433   -0.0230 C   0  0  2  0  0  0  0  0  0  0  0  0
    3.0844   -1.0958    0.5091 H   0  0  0  0  0  0  0  0  0  0  0  0
    2.0908    0.8266    0.9052 C   0  0  0  0  0  0  0  0  0  0  0  0
    2.2756    0.5936    1.9750 H   0  0  0  0  0  0  0  0  0  0  0  0
    2.6372    1.7568    0.6590 H   0  0  0  0  0  0  0  0  0  0  0  0
   -0.1047    2.0745    1.2324 C   0  0  0  0  0  0  0  0  0  0  0  0
   -0.1400    3.3106    0.5310 C   0  0  0  0  0  0  0  0  0  0  0  0
   -0.8590    4.3757    1.1047 C   0  0  0  0  0  0  0  0  0  0  0  0
   -0.9057    5.3379    0.5737 H   0  0  0  0  0  0  0  0  0  0  0  0
   -1.5138    4.2320    2.3321 C   0  0  0  0  0  0  0  0  0  0  0  0
   -2.0767    5.0761    2.7593 H   0  0  0  0  0  0  0  0  0  0  0  0
   -1.4408    3.0178    3.0220 C   0  0  0  0  0  0  0  0  0  0  0  0
   -1.9403    2.9161    3.9965 H   0  0  0  0  0  0  0  0  0  0  0  0
   -0.7304    1.9202    2.4994 C   0  0  0  0  0  0  0  0  0  0  0  0
    0.6214    3.5399   -0.7687 C   0  0  0  0  0  0  0  0  0  0  0  0
    0.8737    2.5427   -1.1837 H   0  0  0  0  0  0  0  0  0  0  0  0
   -0.2130    4.2690   -1.8323 C   0  0  0  0  0  0  0  0  0  0  0  0
   -1.1637    3.7353   -2.0205 H   0  0  0  0  0  0  0  0  0  0  0  0
    0.3458    4.3115   -2.7892 H   0  0  0  0  0  0  0  0  0  0  0  0
   -0.4369    5.3150   -1.5366 H   0  0  0  0  0  0  0  0  0  0  0  0
    1.9247    4.3157   -0.4925 C   0  0  0  0  0  0  0  0  0  0  0  0
    2.5697    3.8109    0.2544 H   0  0  0  0  0  0  0  0  0  0  0  0
    1.7015    5.3286   -0.0977 H   0  0  0  0  0  0  0  0  0  0  0  0
    2.5115    4.4425   -1.4263 H   0  0  0  0  0  0  0  0  0  0  0  0
   -0.5878    0.6548    3.3343 C   0  0  0  0  0  0  0  0  0  0  0  0
   -0.3024   -0.1743    2.6567 H   0  0  0  0  0  0  0  0  0  0  0  0
    0.5298    0.8329    4.3812 C   0  0  0  0  0  0  0  0  0  0  0  0
    1.4966    1.1145    3.9172 H   0  0  0  0  0  0  0  0  0  0  0  0
    0.6834   -0.1062    4.9515 H   0  0  0  0  0  0  0  0  0  0  0  0
    0.2695    1.6330    5.1055 H   0  0  0  0  0  0  0  0  0  0  0  0
   -1.8991    0.2330    4.0115 C   0  0  0  0  0  0  0  0  0  0  0  0
   -2.7169    0.1399    3.2717 H   0  0  0  0  0  0  0  0  0  0  0  0
   -2.2086    0.9490    4.8013 H   0  0  0  0  0  0  0  0  0  0  0  0
   -1.7745   -0.7583    4.4905 H   0  0  0  0  0  0  0  0  0  0  0  0
    1.0027   -2.1603   -1.0712 C   0  0  0  0  0  0  0  0  0  0  0  0
    1.2335   -1.9844   -2.1445 H   0  0  0  0  0  0  0  0  0  0  0  0
   -0.0686   -2.4401   -1.0036 H   0  0  0  0  0  0  0  0  0  0  0  0
    1.8885   -3.2489   -0.5050 C   0  0  0  0  0  0  0  0  0  0  0  0
    2.9508   -3.7853   -1.2555 C   0  0  0  0  0  0  0  0  0  0  0  0
    3.1187   -3.4323   -2.2861 H   0  0  0  0  0  0  0  0  0  0  0  0
    3.7922   -4.7664   -0.7046 C   0  0  0  0  0  0  0  0  0  0  0  0
    4.6183   -5.1797   -1.3031 H   0  0  0  0  0  0  0  0  0  0  0  0
    3.5776   -5.2158    0.6071 C   0  0  0  0  0  0  0  0  0  0  0  0
    4.2364   -5.9827    1.0423 H   0  0  0  0  0  0  0  0  0  0  0  0
    2.5158   -4.6867    1.3615 C   0  0  0  0  0  0  0  0  0  0  0  0
    2.3386   -5.0439    2.3876 H   0  0  0  0  0  0  0  0  0  0  0  0
    1.6753   -3.7095    0.8111 C   0  0  0  0  0  0  0  0  0  0  0  0
    0.8337   -3.2940    1.3901 H   0  0  0  0  0  0  0  0  0  0  0  0
    3.2022    0.0785   -1.3155 C   0  0  0  0  0  0  0  0  0  0  0  0
    3.2418   -0.7999   -1.9913 H   0  0  0  0  0  0  0  0  0  0  0  0
    2.6046    0.8584   -1.8309 H   0  0  0  0  0  0  0  0  0  0  0  0
    4.6042    0.5590   -1.0316 C   0  0  0  0  0  0  0  0  0  0  0  0
    4.9359    1.9271   -1.0821 C   0  0  0  0  0  0  0  0  0  0  0  0
    4.1683    2.6577   -1.3799 H   0  0  0  0  0  0  0  0  0  0  0  0
    6.2319    2.3658   -0.7666 C   0  0  0  0  0  0  0  0  0  0  0  0
    6.4720    3.4389   -0.8156 H   0  0  0  0  0  0  0  0  0  0  0  0
    7.2172    1.4396   -0.3934 C   0  0  0  0  0  0  0  0  0  0  0  0
    8.2338    1.7814   -0.1467 H   0  0  0  0  0  0  0  0  0  0  0  0
    6.8998    0.0719   -0.3415 C   0  0  0  0  0  0  0  0  0  0  0  0
    7.6690   -0.6619   -0.0559 H   0  0  0  0  0  0  0  0  0  0  0  0
    5.6054   -0.3634   -0.6576 C   0  0  0  0  0  0  0  0  0  0  0  0
    5.3644   -1.4388   -0.6206 H   0  0  0  0  0  0  0  0  0  0  0  0
  1  6  1  0  0  0  0
  1  9  1  0  0  0  0
  2  4  1  0  0  0  0
  2  3  1  0  0  0  0
  3  1  1  0  0  0  0
  4  5  1  1  0  0  0
  4  6  1  0  0  0  0
  6  7  1  0  0  0  0
  8  6  1  0  0  0  0
  9 17  1  0  0  0  0
 10 11  1  0  0  0  0
 10  9  2  0  0  0  0
 11 13  2  0  0  0  0
 12 11  1  0  0  0  0
 13 14  1  0  0  0  0
 13 15  1  0  0  0  0
 15 16  1  0  0  0  0
 17 15  2  0  0  0  0
 17 28  1  0  0  0  0
 18 24  1  0  0  0  0
 18 10  1  0  0  0  0
 19 18  1  0  0  0  0
 20 23  1  0  0  0  0
 20 18  1  0  0  0  0
 21 20  1  0  0  0  0
 22 20  1  0  0  0  0
 24 26  1  0  0  0  0
 24 25  1  0  0  0  0
 27 24  1  0  0  0  0
 28 34  1  0  0  0  0
 28 30  1  0  0  0  0
 29 28  1  0  0  0  0
 30 32  1  0  0  0  0
 30 33  1  0  0  0  0
 31 30  1  0  0  0  0
 34 37  1  0  0  0  0
 34 36  1  0  0  0  0
 35 34  1  0  0  0  0
 38 40  1  0  0  0  0
 38 41  1  0  0  0  0
 38  2  1  0  0  0  0
 39 38  1  0  0  0  0
 41 50  1  0  0  0  0
 42 44  1  0  0  0  0
 42 41  2  0  0  0  0
 43 42  1  0  0  0  0
 44 46  2  0  0  0  0
 45 44  1  0  0  0  0
 46 47  1  0  0  0  0
 46 48  1  0  0  0  0
 48 49  1  0  0  0  0
 50 48  2  0  0  0  0
 50 51  1  0  0  0  0
 52 55  1  0  0  0  0
 52  4  1  0  0  0  0
 53 52  1  0  0  0  0
 54 52  1  0  0  0  0
 55 64  1  0  0  0  0
 56 55  2  0  0  0  0
 56 58  1  0  0  0  0
 57 56  1  0  0  0  0
 58 60  2  0  0  0  0
 59 58  1  0  0  0  0
 60 62  1  0  0  0  0
 60 61  1  0  0  0  0
 62 63  1  0  0  0  0
 64 65  1  0  0  0  0
 64 62  2  0  0  0  0
M  END
