1
 OpenBabel05122313113D

 33 35  0  0  1  0  0  0  0  0999 V2000
    3.3807   -0.8415   -0.5002 C   0  0  1  0  0  3  0  0  0  0  0  0
    2.2032   -0.7853   -1.3162 C   0  0  0  0  0  0  0  0  0  0  0  0
    1.5907   -1.6483   -1.6024 H   0  0  0  0  0  0  0  0  0  0  0  0
    1.8923    0.5598   -1.6469 C   0  0  0  0  0  0  0  0  0  0  0  0
    1.0551    0.8904   -2.2718 H   0  0  0  0  0  0  0  0  0  0  0  0
    2.9225    1.3879   -1.0974 C   0  0  0  0  0  0  0  0  0  0  0  0
    3.1296    2.7945   -1.1584 C   0  0  0  0  0  0  0  0  0  0  0  0
    2.4173    3.4319   -1.7022 H   0  0  0  0  0  0  0  0  0  0  0  0
    4.2338    3.3380   -0.5225 C   0  0  0  0  0  0  0  0  0  0  0  0
    4.4131    4.4225   -0.5672 H   0  0  0  0  0  0  0  0  0  0  0  0
    5.1510    2.5082    0.1885 C   0  0  0  0  0  0  0  0  0  0  0  0
    6.0238    2.9704    0.6734 H   0  0  0  0  0  0  0  0  0  0  0  0
    4.9724    1.1371    0.2829 C   0  0  0  0  0  0  0  0  0  0  0  0
    5.7050    0.5293    0.8266 H   0  0  0  0  0  0  0  0  0  0  0  0
    3.8495    0.5286   -0.3622 C   0  0  0  0  0  0  0  0  0  0  0  0
    3.7548   -2.0936    0.3173 C   0  0  0  0  0  0  0  0  0  0  0  0
    3.4802   -3.3804   -0.4792 C   0  0  0  0  0  0  0  0  0  0  0  0
    2.4403   -3.4486   -0.8496 H   0  0  0  0  0  0  0  0  0  0  0  0
    3.6620   -4.2671    0.1597 H   0  0  0  0  0  0  0  0  0  0  0  0
    4.1524   -3.4348   -1.3582 H   0  0  0  0  0  0  0  0  0  0  0  0
    5.2128   -2.1190    0.7957 C   0  0  0  0  0  0  0  0  0  0  0  0
    5.9066   -2.0344   -0.0638 H   0  0  0  0  0  0  0  0  0  0  0  0
    5.4175   -3.0755    1.3160 H   0  0  0  0  0  0  0  0  0  0  0  0
    5.4466   -1.3064    1.5062 H   0  0  0  0  0  0  0  0  0  0  0  0
    2.7671   -1.9270    1.4807 C   0  0  0  0  0  0  0  0  0  0  0  0
    2.9340   -1.0472    2.5973 C   0  0  0  0  0  3  0  0  0  0  0  0
    3.8759   -0.5961    2.9284 H   0  0  0  0  0  0  0  0  0  0  0  0
    1.6593   -0.8437    3.2173 C   0  0  0  0  0  0  0  0  0  0  0  0
    1.4684   -0.2243    4.1013 H   0  0  0  0  0  0  0  0  0  0  0  0
    0.6954   -1.5666    2.4737 C   0  0  0  0  0  0  0  0  0  0  0  0
   -0.3796   -1.6339    2.6778 H   0  0  0  0  0  0  0  0  0  0  0  0
    1.3705   -2.2227    1.3963 C   0  0  0  0  0  0  0  0  0  0  0  0
    0.8867   -2.8630    0.6538 H   0  0  0  0  0  0  0  0  0  0  0  0
  1 15  1  0  0  0  0
  1 16  1  1  0  0  0
  2  1  1  0  0  0  0
  3  2  1  0  0  0  0
  4  2  2  0  0  0  0
  4  6  1  0  0  0  0
  5  4  1  0  0  0  0
  6 15  1  0  0  0  0
  7  6  2  0  0  0  0
  7  9  1  0  0  0  0
  8  7  1  0  0  0  0
  9 11  2  0  0  0  0
 10  9  1  0  0  0  0
 11 13  1  0  0  0  0
 11 12  1  0  0  0  0
 13 14  1  0  0  0  0
 15 13  2  0  0  0  0
 16 21  1  0  0  0  0
 16 25  1  0  0  0  0
 17 19  1  0  0  0  0
 17 16  1  0  0  0  0
 18 17  1  0  0  0  0
 20 17  1  0  0  0  0
 21 23  1  0  0  0  0
 21 24  1  0  0  0  0
 22 21  1  0  0  0  0
 25 26  1  0  0  0  0
 26 27  1  0  0  0  0
 26 28  1  0  0  0  0
 28 29  1  0  0  0  0
 30 31  1  0  0  0  0
 30 28  2  0  0  0  0
 32 25  2  0  0  0  0
 32 30  1  0  0  0  0
 33 32  1  0  0  0  0
M  END
