5
 OpenBabel05122313113D

 12 12  0  0  1  0  0  0  0  0999 V2000
   -1.0604   -2.8647   -2.4146 O   0  0  0  0  0  0  0  0  0  0  0  0
    2.3659   -2.9520   -2.7368 O   0  0  0  0  0  0  0  0  0  0  0  0
   -0.2176   -3.9992    3.3628 O   0  0  0  0  0  0  0  0  0  0  0  0
    0.7619   -2.9079   -0.8853 C   0  0  0  0  0  3  0  0  0  0  0  0
   -0.6728   -2.9341   -0.9209 C   0  0  2  0  0  3  0  0  0  0  0  0
   -1.6889   -3.4450   -0.0495 C   0  0  0  0  0  3  0  0  0  0  0  0
    1.2233   -2.8875   -2.3111 C   0  0  0  0  0  0  0  0  0  0  0  0
   -0.0515   -2.7869   -3.2151 C   0  0  0  0  0  2  0  0  0  0  0  0
   -0.7702   -3.8954    2.3070 C   0  0  0  0  0  0  0  0  0  0  0  0
   -1.5142   -3.8151    1.2515 C   0  0  0  0  0  3  0  0  0  0  0  0
    1.3702   -3.4105   -0.1209 H   0  0  0  0  0  0  0  0  0  0  0  0
   -2.6940   -3.4880   -0.5160 H   0  0  0  0  0  0  0  0  0  0  0  0
  1  5  1  0  0  0  0
  2  7  2  0  0  0  0
  4 11  1  0  0  0  0
  5  4  1  0  0  0  0
  5  6  1  6  0  0  0
  6 10  1  0  0  0  0
  7  4  1  0  0  0  0
  8  1  1  0  0  0  0
  8  7  1  0  0  0  0
  9  3  2  0  0  0  0
 10  9  2  0  0  0  0
 12  6  1  0  0  0  0
M  END
