2
 OpenBabel05122313113D

 36 39  0  0  1  0  0  0  0  0999 V2000
   -0.4697    0.2360    1.0457 C   0  0  2  0  0  3  0  0  0  0  0  0
   -1.4984    0.7895    0.1972 C   0  0  1  0  0  3  0  0  0  0  0  0
   -1.4592   -0.6395    0.4813 C   0  0  2  0  0  3  0  0  0  0  0  0
    0.3695    0.5655    2.1792 C   0  0  0  0  0  0  0  0  0  0  0  0
    1.0410   -0.4316    2.9300 C   0  0  0  0  0  0  0  0  0  0  0  0
    1.9134   -0.0819    3.9687 C   0  0  0  0  0  0  0  0  0  0  0  0
    2.1405    1.2685    4.2804 C   0  0  0  0  0  0  0  0  0  0  0  0
    1.4727    2.2687    3.5512 C   0  0  0  0  0  0  0  0  0  0  0  0
    0.5973    1.9249    2.5160 C   0  0  0  0  0  0  0  0  0  0  0  0
   -2.4590    1.8920    0.2358 C   0  0  0  0  0  0  0  0  0  0  0  0
   -3.8379    1.6380    0.4136 C   0  0  0  0  0  0  0  0  0  0  0  0
   -4.7567    2.6953    0.4721 C   0  0  0  0  0  0  0  0  0  0  0  0
   -4.3205    4.0235    0.3480 C   0  0  0  0  0  0  0  0  0  0  0  0
   -2.9530    4.2882    0.1642 C   0  0  0  0  0  0  0  0  0  0  0  0
   -2.0332    3.2348    0.1063 C   0  0  0  0  0  0  0  0  0  0  0  0
   -2.3182   -1.7569    0.8540 C   0  0  0  0  0  0  0  0  0  0  0  0
   -1.9706   -2.6081    1.9296 C   0  0  0  0  0  0  0  0  0  0  0  0
   -2.7892   -3.6899    2.2807 C   0  0  0  0  0  0  0  0  0  0  0  0
   -3.9700   -3.9457    1.5653 C   0  0  0  0  0  0  0  0  0  0  0  0
   -4.3247   -3.1098    0.4927 C   0  0  0  0  0  0  0  0  0  0  0  0
   -3.5079   -2.0309    0.1354 C   0  0  0  0  0  0  0  0  0  0  0  0
   -4.1833    0.6000    0.5188 H   0  0  0  0  0  0  0  0  0  0  0  0
   -5.8261    2.4773    0.6161 H   0  0  0  0  0  0  0  0  0  0  0  0
   -5.0441    4.8516    0.3903 H   0  0  0  0  0  0  0  0  0  0  0  0
   -2.6015    5.3260    0.0593 H   0  0  0  0  0  0  0  0  0  0  0  0
   -0.9653    3.4462   -0.0532 H   0  0  0  0  0  0  0  0  0  0  0  0
   -1.0546   -2.4016    2.5011 H   0  0  0  0  0  0  0  0  0  0  0  0
   -2.5050   -4.3365    3.1252 H   0  0  0  0  0  0  0  0  0  0  0  0
   -4.6127   -4.7952    1.8414 H   0  0  0  0  0  0  0  0  0  0  0  0
   -5.2454   -3.3060   -0.0775 H   0  0  0  0  0  0  0  0  0  0  0  0
   -3.7785   -1.3925   -0.7182 H   0  0  0  0  0  0  0  0  0  0  0  0
    0.8842   -1.4907    2.6793 H   0  0  0  0  0  0  0  0  0  0  0  0
    2.4249   -0.8734    4.5376 H   0  0  0  0  0  0  0  0  0  0  0  0
    2.8284    1.5417    5.0948 H   0  0  0  0  0  0  0  0  0  0  0  0
    1.6359    3.3297    3.7951 H   0  0  0  0  0  0  0  0  0  0  0  0
    0.0715    2.7072    1.9512 H   0  0  0  0  0  0  0  0  0  0  0  0
  1  4  1  1  0  0  0
  2 10  1  1  0  0  0
  2  3  1  0  0  0  0
  2  1  1  0  0  0  0
  3 16  1  1  0  0  0
  3  1  1  0  0  0  0
  4  9  2  0  0  0  0
  4  5  1  0  0  0  0
  5  6  2  0  0  0  0
  6  7  1  0  0  0  0
  6 33  1  0  0  0  0
  7 34  1  0  0  0  0
  8 35  1  0  0  0  0
  8  7  2  0  0  0  0
  9  8  1  0  0  0  0
 10 11  1  0  0  0  0
 11 12  2  0  0  0  0
 11 22  1  0  0  0  0
 12 23  1  0  0  0  0
 13 24  1  0  0  0  0
 13 12  1  0  0  0  0
 14 13  2  0  0  0  0
 15 14  1  0  0  0  0
 15 10  2  0  0  0  0
 16 17  1  0  0  0  0
 17 18  2  0  0  0  0
 17 27  1  0  0  0  0
 18 28  1  0  0  0  0
 19 29  1  0  0  0  0
 19 18  1  0  0  0  0
 20 19  2  0  0  0  0
 21 20  1  0  0  0  0
 21 16  2  0  0  0  0
 25 14  1  0  0  0  0
 26 15  1  0  0  0  0
 30 20  1  0  0  0  0
 31 21  1  0  0  0  0
 32  5  1  0  0  0  0
 36  9  1  0  0  0  0
M  END
