8
 OpenBabel05122313113D

 20 21  0  0  1  0  0  0  0  0999 V2000
    2.0230    2.7296    0.2609 O   0  0  0  0  0  0  0  0  0  0  0  0
    1.9571   -2.7023    0.0835 O   0  0  0  0  0  0  0  0  0  0  0  0
    0.9228   -0.7111    0.8603 C   0  0  2  0  0  3  0  0  0  0  0  0
   -0.1621   -1.4279    1.4651 C   0  0  0  0  0  0  0  0  0  0  0  0
   -1.2323   -0.7366    2.0721 C   0  0  0  0  0  0  0  0  0  0  0  0
   -1.2409    0.6966    2.0714 C   0  0  0  0  0  0  0  0  0  0  0  0
   -0.1728    1.4249    1.5038 C   0  0  0  0  0  0  0  0  0  0  0  0
    0.8945    0.7250    0.8560 C   0  0  2  0  0  3  0  0  0  0  0  0
    1.9397    1.5191    0.1165 C   0  0  0  0  0  0  0  0  0  0  0  0
    2.8155    0.7319   -0.8414 C   0  0  0  0  0  0  0  0  0  0  0  0
    3.1866   -0.6663   -0.3307 C   0  0  0  0  0  0  0  0  0  0  0  0
    2.0063   -1.4820    0.1702 C   0  0  0  0  0  0  0  0  0  0  0  0
   -0.1390   -2.5252    1.3995 H   0  0  0  0  0  0  0  0  0  0  0  0
   -2.0835   -1.2918    2.4885 H   0  0  0  0  0  0  0  0  0  0  0  0
   -2.1038    1.2334    2.4906 H   0  0  0  0  0  0  0  0  0  0  0  0
   -0.1706    2.5225    1.4597 H   0  0  0  0  0  0  0  0  0  0  0  0
    2.2355    0.6461   -1.7877 H   0  0  0  0  0  0  0  0  0  0  0  0
    3.7079    1.3445   -1.0715 H   0  0  0  0  0  0  0  0  0  0  0  0
    3.7177   -1.2647   -1.0953 H   0  0  0  0  0  0  0  0  0  0  0  0
    3.8820   -0.5728    0.5349 H   0  0  0  0  0  0  0  0  0  0  0  0
  2 12  2  0  0  0  0
  3 12  1  6  0  0  0
  3  4  1  0  0  0  0
  4  5  2  0  0  0  0
  5 14  1  0  0  0  0
  6  5  1  0  0  0  0
  6 15  1  0  0  0  0
  7  6  2  0  0  0  0
  8  9  1  6  0  0  0
  8  3  1  0  0  0  0
  8  7  1  0  0  0  0
  9  1  2  0  0  0  0
 10 11  1  0  0  0  0
 10  9  1  0  0  0  0
 11 12  1  0  0  0  0
 11 20  1  0  0  0  0
 13  4  1  0  0  0  0
 16  7  1  0  0  0  0
 17 10  1  0  0  0  0
 18 10  1  0  0  0  0
 19 11  1  0  0  0  0
M  END
