24
 OpenBabel05122313113D

 29 30  0  0  1  0  0  0  0  0999 V2000
    2.1657   -1.1132    0.4418 N   0  0  0  0  0  0  0  0  0  0  0  0
    2.1648    1.1154    0.4422 N   0  0  0  0  0  0  0  0  0  0  0  0
    2.5664   -2.4764    0.1351 C   0  0  0  0  0  0  0  0  0  0  0  0
    3.6535   -2.5080   -0.0608 H   0  0  0  0  0  0  0  0  0  0  0  0
    2.0141   -2.8282   -0.7605 H   0  0  0  0  0  0  0  0  0  0  0  0
    2.3337   -3.1369    0.9922 H   0  0  0  0  0  0  0  0  0  0  0  0
    2.8969    0.0014    0.2127 C   0  0  0  0  0  3  0  0  0  0  0  0
    0.8802    0.7137    0.8412 C   0  0  0  0  0  0  0  0  0  0  0  0
    2.5642    2.4789    0.1358 C   0  0  0  0  0  0  0  0  0  0  0  0
    3.6516    2.5117   -0.0588 H   0  0  0  0  0  0  0  0  0  0  0  0
    2.3299    3.1392    0.9926 H   0  0  0  0  0  0  0  0  0  0  0  0
    2.0127    2.8300   -0.7606 H   0  0  0  0  0  0  0  0  0  0  0  0
   -0.3979    1.2035    1.2689 C   0  0  0  0  0  0  0  0  0  0  0  0
   -0.8211    2.6237    1.4881 C   0  0  0  0  0  0  0  0  0  0  0  0
   -0.5475    2.9933    2.5017 H   0  0  0  0  0  0  0  0  0  0  0  0
   -1.9179    2.7255    1.3826 H   0  0  0  0  0  0  0  0  0  0  0  0
   -0.3659    3.3016    0.7400 H   0  0  0  0  0  0  0  0  0  0  0  0
   -1.1694   -0.0007    1.5397 C   0  0  0  0  0  0  0  0  0  0  0  0
   -2.5595   -0.0012    2.1025 C   0  0  0  0  0  0  0  0  0  0  0  0
   -2.5455    0.0010    3.2140 H   0  0  0  0  0  0  0  0  0  0  0  0
   -3.1269   -0.8917    1.7712 H   0  0  0  0  0  0  0  0  0  0  0  0
   -3.1290    0.8865    1.7676 H   0  0  0  0  0  0  0  0  0  0  0  0
   -0.3967   -1.2041    1.2686 C   0  0  0  0  0  0  0  0  0  0  0  0
    0.8810   -0.7129    0.8412 C   0  0  2  0  0  3  0  0  0  0  0  0
   -0.8182   -2.6249    1.4875 C   0  0  0  0  0  0  0  0  0  0  0  0
   -0.5416   -2.9952    2.5000 H   0  0  0  0  0  0  0  0  0  0  0  0
   -0.3642   -3.3016    0.7375 H   0  0  0  0  0  0  0  0  0  0  0  0
   -1.9150   -2.7275    1.3846 H   0  0  0  0  0  0  0  0  0  0  0  0
    3.9003    0.0019   -0.2262 H   0  0  0  0  0  0  0  0  0  0  0  0
  1 24  1  0  0  0  0
  2  8  1  0  0  0  0
  3  1  1  0  0  0  0
  3  6  1  0  0  0  0
  4  3  1  0  0  0  0
  5  3  1  0  0  0  0
  7  1  1  0  0  0  0
  7  2  1  0  0  0  0
  8 13  2  0  0  0  0
  9  2  1  0  0  0  0
  9 11  1  0  0  0  0
 10  9  1  0  0  0  0
 12  9  1  0  0  0  0
 13 14  1  0  0  0  0
 13 18  1  0  0  0  0
 14 15  1  0  0  0  0
 16 14  1  0  0  0  0
 17 14  1  0  0  0  0
 18 19  1  0  0  0  0
 19 20  1  0  0  0  0
 21 19  1  0  0  0  0
 22 19  1  0  0  0  0
 23 25  1  0  0  0  0
 23 18  2  0  0  0  0
 24  8  1  1  0  0  0
 24 23  1  0  0  0  0
 25 26  1  0  0  0  0
 27 25  1  0  0  0  0
 28 25  1  0  0  0  0
 29  7  1  0  0  0  0
M  END
