2
 OpenBabel05122313113D

 71 73  0  0  1  0  0  0  0  0999 V2000
   -0.8941    0.4375    0.9564 N   0  0  0  0  0  0  0  0  0  0  0  0
    0.3131    0.1551    0.4461 C   0  0  0  0  0  2  0  0  0  0  0  0
    1.3864    0.5260    1.4893 C   0  0  1  0  0  0  0  0  0  0  0  0
    0.6071    1.2886    2.5898 C   0  0  0  0  0  0  0  0  0  0  0  0
    0.8945    0.9351    3.5986 H   0  0  0  0  0  0  0  0  0  0  0  0
    0.8375    2.3699    2.5546 H   0  0  0  0  0  0  0  0  0  0  0  0
   -0.9021    1.0671    2.3373 C   0  0  0  0  0  0  0  0  0  0  0  0
    1.9496   -0.8031    2.0735 C   0  0  0  0  0  0  0  0  0  0  0  0
    2.5880   -0.5419    2.9476 H   0  0  0  0  0  0  0  0  0  0  0  0
    1.1088   -1.4116    2.4696 H   0  0  0  0  0  0  0  0  0  0  0  0
    2.7707   -1.6313    1.0831 C   0  0  1  0  0  0  0  0  0  0  0  0
    3.9219   -0.7940    0.5221 C   0  0  0  0  0  0  0  0  0  0  0  0
    4.6528   -0.5829    1.3355 H   0  0  0  0  0  0  0  0  0  0  0  0
    4.4594   -1.3676   -0.2605 H   0  0  0  0  0  0  0  0  0  0  0  0
    3.4082    0.5177   -0.0647 C   0  0  0  0  0  0  0  0  0  0  0  0
    2.5713    1.3597    0.9071 C   0  0  1  0  0  0  0  0  0  0  0  0
    3.2171    1.5571    1.7940 H   0  0  0  0  0  0  0  0  0  0  0  0
   -2.1286    0.0899    0.2931 C   0  0  0  0  0  0  0  0  0  0  0  0
   -2.7525    1.0433   -0.5574 C   0  0  0  0  0  0  0  0  0  0  0  0
   -3.9774    0.6907   -1.1532 C   0  0  0  0  0  0  0  0  0  0  0  0
   -4.4765    1.4115   -1.8182 H   0  0  0  0  0  0  0  0  0  0  0  0
   -4.5538   -0.5653   -0.9433 C   0  0  0  0  0  0  0  0  0  0  0  0
   -5.5104   -0.8205   -1.4235 H   0  0  0  0  0  0  0  0  0  0  0  0
   -3.8921   -1.5106   -0.1539 C   0  0  0  0  0  0  0  0  0  0  0  0
   -4.3258   -2.5147   -0.0343 H   0  0  0  0  0  0  0  0  0  0  0  0
   -2.6672   -1.2156    0.4723 C   0  0  0  0  0  0  0  0  0  0  0  0
   -1.5299    0.1252    3.3748 C   0  0  0  0  0  0  0  0  0  0  0  0
   -1.5342    0.6299    4.3609 H   0  0  0  0  0  0  0  0  0  0  0  0
   -0.9636   -0.8186    3.4801 H   0  0  0  0  0  0  0  0  0  0  0  0
   -2.5776   -0.1175    3.1132 H   0  0  0  0  0  0  0  0  0  0  0  0
   -1.6825    2.3859    2.3444 C   0  0  0  0  0  0  0  0  0  0  0  0
   -1.2426    3.1284    1.6530 H   0  0  0  0  0  0  0  0  0  0  0  0
   -1.6559    2.8139    3.3660 H   0  0  0  0  0  0  0  0  0  0  0  0
   -2.7435    2.2291    2.0690 H   0  0  0  0  0  0  0  0  0  0  0  0
    3.2287   -2.9612    1.6786 C   0  0  0  0  0  0  0  0  0  0  0  0
    3.8948   -2.7966    2.5527 H   0  0  0  0  0  0  0  0  0  0  0  0
    3.7900   -3.5579    0.9322 H   0  0  0  0  0  0  0  0  0  0  0  0
    2.3659   -3.5687    2.0205 H   0  0  0  0  0  0  0  0  0  0  0  0
    2.1925    2.7546    0.3200 C   0  0  0  0  0  0  0  0  0  0  0  0
    1.2954    3.1115    0.8720 H   0  0  0  0  0  0  0  0  0  0  0  0
    1.8243    2.7528   -1.1704 C   0  0  0  0  0  0  0  0  0  0  0  0
    1.3916    3.7317   -1.4606 H   0  0  0  0  0  0  0  0  0  0  0  0
    1.0876    1.9610   -1.4208 H   0  0  0  0  0  0  0  0  0  0  0  0
    2.7117    2.5817   -1.8133 H   0  0  0  0  0  0  0  0  0  0  0  0
    3.3128    3.7691    0.5928 C   0  0  0  0  0  0  0  0  0  0  0  0
    4.2628    3.4531    0.1119 H   0  0  0  0  0  0  0  0  0  0  0  0
    3.5089    3.8831    1.6790 H   0  0  0  0  0  0  0  0  0  0  0  0
    3.0571    4.7683    0.1855 H   0  0  0  0  0  0  0  0  0  0  0  0
   -2.1098    2.3742   -0.9390 C   0  0  0  0  0  0  0  0  0  0  0  0
   -1.1926    2.4936   -0.3304 H   0  0  0  0  0  0  0  0  0  0  0  0
   -1.6663    2.3658   -2.4145 C   0  0  0  0  0  0  0  0  0  0  0  0
   -0.9399    1.5569   -2.6181 H   0  0  0  0  0  0  0  0  0  0  0  0
   -1.1841    3.3302   -2.6741 H   0  0  0  0  0  0  0  0  0  0  0  0
   -2.5318    2.2237   -3.0934 H   0  0  0  0  0  0  0  0  0  0  0  0
   -3.0308    3.5760   -0.6683 C   0  0  0  0  0  0  0  0  0  0  0  0
   -3.9238    3.5552   -1.3260 H   0  0  0  0  0  0  0  0  0  0  0  0
   -2.4963    4.5257   -0.8746 H   0  0  0  0  0  0  0  0  0  0  0  0
   -3.3897    3.6043    0.3788 H   0  0  0  0  0  0  0  0  0  0  0  0
   -1.9482   -2.3298    1.2305 C   0  0  0  0  0  0  0  0  0  0  0  0
   -1.0631   -1.8858    1.7232 H   0  0  0  0  0  0  0  0  0  0  0  0
   -1.4161   -3.4116    0.2712 C   0  0  0  0  0  0  0  0  0  0  0  0
   -2.2345   -3.8615   -0.3271 H   0  0  0  0  0  0  0  0  0  0  0  0
   -0.9302   -4.2252    0.8484 H   0  0  0  0  0  0  0  0  0  0  0  0
   -0.6642   -2.9958   -0.4278 H   0  0  0  0  0  0  0  0  0  0  0  0
   -2.8336   -2.9657    2.3159 C   0  0  0  0  0  0  0  0  0  0  0  0
   -3.2581   -2.2125    3.0083 H   0  0  0  0  0  0  0  0  0  0  0  0
   -2.2472   -3.6917    2.9152 H   0  0  0  0  0  0  0  0  0  0  0  0
   -3.6822   -3.5231    1.8695 H   0  0  0  0  0  0  0  0  0  0  0  0
    4.2492    1.1215   -0.4651 H   0  0  0  0  0  0  0  0  0  0  0  0
    2.8136    0.2936   -0.9993 H   0  0  0  0  0  0  0  0  0  0  0  0
    2.0847   -1.8891    0.2186 H   0  0  0  0  0  0  0  0  0  0  0  0
  1  7  1  0  0  0  0
  2  1  1  0  0  0  0
  3  2  1  6  0  0  0
  3  8  1  0  0  0  0
  3  4  1  0  0  0  0
  4  5  1  0  0  0  0
  6  4  1  0  0  0  0
  7 31  1  0  0  0  0
  7  4  1  0  0  0  0
  7 27  1  0  0  0  0
  8 10  1  0  0  0  0
  8  9  1  0  0  0  0
 11 71  1  6  0  0  0
 11 35  1  0  0  0  0
 11  8  1  0  0  0  0
 12 11  1  0  0  0  0
 12 13  1  0  0  0  0
 14 12  1  0  0  0  0
 15 12  1  0  0  0  0
 15 16  1  0  0  0  0
 16  3  1  0  0  0  0
 16 17  1  1  0  0  0
 18 26  1  0  0  0  0
 18  1  1  0  0  0  0
 19 18  2  0  0  0  0
 20 22  2  0  0  0  0
 20 19  1  0  0  0  0
 21 20  1  0  0  0  0
 22 24  1  0  0  0  0
 23 22  1  0  0  0  0
 24 25  1  0  0  0  0
 24 26  2  0  0  0  0
 26 59  1  0  0  0  0
 27 29  1  0  0  0  0
 27 28  1  0  0  0  0
 30 27  1  0  0  0  0
 31 33  1  0  0  0  0
 32 31  1  0  0  0  0
 34 31  1  0  0  0  0
 35 38  1  0  0  0  0
 35 36  1  0  0  0  0
 37 35  1  0  0  0  0
 39 45  1  0  0  0  0
 39 40  1  0  0  0  0
 39 16  1  0  0  0  0
 41 39  1  0  0  0  0
 42 41  1  0  0  0  0
 43 41  1  0  0  0  0
 44 41  1  0  0  0  0
 45 47  1  0  0  0  0
 46 45  1  0  0  0  0
 48 45  1  0  0  0  0
 49 55  1  0  0  0  0
 49 19  1  0  0  0  0
 49 50  1  0  0  0  0
 51 49  1  0  0  0  0
 52 51  1  0  0  0  0
 53 51  1  0  0  0  0
 54 51  1  0  0  0  0
 55 58  1  0  0  0  0
 56 55  1  0  0  0  0
 57 55  1  0  0  0  0
 59 60  1  0  0  0  0
 59 65  1  0  0  0  0
 61 63  1  0  0  0  0
 61 59  1  0  0  0  0
 62 61  1  0  0  0  0
 64 61  1  0  0  0  0
 65 67  1  0  0  0  0
 65 66  1  0  0  0  0
 68 65  1  0  0  0  0
 69 15  1  0  0  0  0
 70 15  1  0  0  0  0
M  END
