5
 OpenBabel05122313113D

 33 33  0  0  0  0  0  0  0  0999 V2000
   -2.4707   -0.9187   -0.0960 Si  0  0  0  0  0  0  0  0  0  0  0  0
   -3.8199   -0.0882    0.6553 N   0  0  0  0  0  0  0  0  0  0  0  0
   -1.0737    0.3385   -0.3521 C   0  0  0  0  0  0  0  0  0  0  0  0
   -0.2769    0.5397   -1.5308 C   0  0  0  0  0  0  0  0  0  0  0  0
    0.6758    1.5739   -1.2924 C   0  0  0  0  0  3  0  0  0  0  0  0
    0.4985    2.0150    0.0578 C   0  0  0  0  0  0  0  0  0  0  0  0
   -0.5790    1.2618    0.6203 C   0  0  0  0  0  0  0  0  0  0  0  0
   -4.7559    0.9041    0.1030 C   0  0  0  0  0  0  0  0  0  0  0  0
   -5.3243    1.7280    1.2736 C   0  0  0  0  0  0  0  0  0  0  0  0
   -4.0109    1.8430   -0.8599 C   0  0  0  0  0  0  0  0  0  0  0  0
   -5.9132    0.2071   -0.6470 C   0  0  0  0  0  0  0  0  0  0  0  0
   -2.7942   -1.7052   -1.7854 C   0  0  0  0  0  0  0  0  0  0  0  0
   -1.9595   -2.2465    1.1385 C   0  0  0  0  0  0  0  0  0  0  0  0
   -4.2446   -0.6164    1.4238 H   0  0  0  0  0  0  0  0  0  0  0  0
   -0.3742   -0.0263   -2.4656 H   0  0  0  0  0  0  0  0  0  0  0  0
    1.4158    1.9571   -2.0042 H   0  0  0  0  0  0  0  0  0  0  0  0
    1.0819    2.7952    0.5625 H   0  0  0  0  0  0  0  0  0  0  0  0
   -0.9513    1.3534    1.6482 H   0  0  0  0  0  0  0  0  0  0  0  0
   -5.8642    1.0724    1.9892 H   0  0  0  0  0  0  0  0  0  0  0  0
   -6.0397    2.4971    0.9183 H   0  0  0  0  0  0  0  0  0  0  0  0
   -4.5045    2.2316    1.8234 H   0  0  0  0  0  0  0  0  0  0  0  0
   -3.5745    1.2873   -1.7149 H   0  0  0  0  0  0  0  0  0  0  0  0
   -3.1856    2.3700   -0.3428 H   0  0  0  0  0  0  0  0  0  0  0  0
   -4.7070    2.5984   -1.2748 H   0  0  0  0  0  0  0  0  0  0  0  0
   -6.4502   -0.4891    0.0301 H   0  0  0  0  0  0  0  0  0  0  0  0
   -5.5250   -0.3835   -1.5010 H   0  0  0  0  0  0  0  0  0  0  0  0
   -6.6507    0.9387   -1.0381 H   0  0  0  0  0  0  0  0  0  0  0  0
   -3.0818   -0.9613   -2.5556 H   0  0  0  0  0  0  0  0  0  0  0  0
   -3.6080   -2.4553   -1.7161 H   0  0  0  0  0  0  0  0  0  0  0  0
   -1.8775   -2.2260   -2.1339 H   0  0  0  0  0  0  0  0  0  0  0  0
   -1.6414   -1.8065    2.1043 H   0  0  0  0  0  0  0  0  0  0  0  0
   -1.1037   -2.8230    0.7340 H   0  0  0  0  0  0  0  0  0  0  0  0
   -2.7937   -2.9544    1.3241 H   0  0  0  0  0  0  0  0  0  0  0  0
  1  2  1  0  0  0  0
  1 13  1  0  0  0  0
  2 14  1  0  0  0  0
  3  1  1  0  0  0  0
  3  7  1  0  0  0  0
  4  5  1  0  0  0  0
  4  3  2  0  0  0  0
  5  6  1  0  0  0  0
  6 17  1  0  0  0  0
  6  7  2  0  0  0  0
  7 18  1  0  0  0  0
  8  2  1  0  0  0  0
  8  9  1  0  0  0  0
  9 21  1  0  0  0  0
  9 19  1  0  0  0  0
 10 23  1  0  0  0  0
 10  8  1  0  0  0  0
 11 25  1  0  0  0  0
 11  8  1  0  0  0  0
 12 29  1  0  0  0  0
 12  1  1  0  0  0  0
 13 33  1  0  0  0  0
 13 31  1  0  0  0  0
 15  4  1  0  0  0  0
 16  5  1  0  0  0  0
 20  9  1  0  0  0  0
 22 10  1  0  0  0  0
 24 10  1  0  0  0  0
 26 11  1  0  0  0  0
 27 11  1  0  0  0  0
 28 12  1  0  0  0  0
 30 12  1  0  0  0  0
 32 13  1  0  0  0  0
M  END
