5
 OpenBabel05122313113D

 72 76  0  0  1  0  0  0  0  0999 V2000
   -1.0899   -1.2933   -3.0123 C   0  0  2  0  0  3  0  0  0  0  0  0
   -1.6873   -2.6266   -3.0262 C   0  0  0  0  0  0  0  0  0  0  0  0
   -3.0660   -2.5174   -2.6610 C   0  0  0  0  0  0  0  0  0  0  0  0
   -3.3641   -1.1045   -2.4160 C   0  0  1  0  0  3  0  0  0  0  0  0
   -2.1445   -0.3538   -2.6735 C   0  0  2  0  0  3  0  0  0  0  0  0
    0.2991   -0.9748   -3.4576 C   0  0  0  0  0  0  0  0  0  0  0  0
    0.3820   -1.0769   -4.5617 H   0  0  0  0  0  0  0  0  0  0  0  0
    1.0334   -1.6601   -2.9923 H   0  0  0  0  0  0  0  0  0  0  0  0
    0.5953    0.0519   -3.1796 H   0  0  0  0  0  0  0  0  0  0  0  0
   -0.9268   -3.8699   -3.3388 C   0  0  0  0  0  0  0  0  0  0  0  0
   -0.4474   -3.7894   -4.3359 H   0  0  0  0  0  0  0  0  0  0  0  0
   -1.5758   -4.7643   -3.3274 H   0  0  0  0  0  0  0  0  0  0  0  0
   -0.1282   -4.0166   -2.5801 H   0  0  0  0  0  0  0  0  0  0  0  0
   -4.0589   -3.6190   -2.4973 C   0  0  0  0  0  0  0  0  0  0  0  0
   -4.9297   -3.4655   -3.1678 H   0  0  0  0  0  0  0  0  0  0  0  0
   -4.4282   -3.6344   -1.4492 H   0  0  0  0  0  0  0  0  0  0  0  0
   -3.6153   -4.6071   -2.7173 H   0  0  0  0  0  0  0  0  0  0  0  0
   -4.7211   -0.5810   -2.0747 C   0  0  0  0  0  0  0  0  0  0  0  0
   -5.3987   -0.6330   -2.9534 H   0  0  0  0  0  0  0  0  0  0  0  0
   -4.6840    0.4655   -1.7218 H   0  0  0  0  0  0  0  0  0  0  0  0
   -5.1608   -1.1881   -1.2586 H   0  0  0  0  0  0  0  0  0  0  0  0
   -2.0558    1.1396   -2.7386 C   0  0  0  0  0  0  0  0  0  0  0  0
   -3.0586    1.5514   -2.4987 H   0  0  0  0  0  0  0  0  0  0  0  0
   -1.8657    1.4133   -3.7954 H   0  0  0  0  0  0  0  0  0  0  0  0
   -1.2012    0.0775    0.3549 P   0  0  1  0  0  0  0  0  0  0  0  0
   -2.4318    0.5696    1.6320 C   0  0  0  0  0  0  0  0  0  0  0  0
   -3.5483    1.3308    1.2447 C   0  0  0  0  0  0  0  0  0  0  0  0
   -3.6376    1.8174   -0.0103 F   0  0  0  0  0  0  0  0  0  0  0  0
   -4.6125    1.5993    2.1144 C   0  0  0  0  0  0  0  0  0  0  0  0
   -5.6530    2.3331    1.7126 F   0  0  0  0  0  0  0  0  0  0  0  0
   -4.5800    1.0717    3.4166 C   0  0  0  0  0  0  0  0  0  0  0  0
   -5.5822    1.3152    4.2580 F   0  0  0  0  0  0  0  0  0  0  0  0
   -3.4856    0.2947    3.8306 C   0  0  0  0  0  0  0  0  0  0  0  0
   -3.4599   -0.2104    5.0637 F   0  0  0  0  0  0  0  0  0  0  0  0
   -2.4360    0.0373    2.9341 C   0  0  0  0  0  0  0  0  0  0  0  0
   -1.4374   -0.7386    3.3663 F   0  0  0  0  0  0  0  0  0  0  0  0
   -0.8234    1.6820   -0.4984 C   0  0  0  0  0  0  0  0  0  0  0  0
   -1.0725    1.9171   -1.8787 C   0  0  0  0  0  0  0  0  0  0  0  0
   -0.5280    3.0748   -2.4617 C   0  0  0  0  0  0  0  0  0  0  0  0
   -0.7190    3.3327   -3.7665 F   0  0  0  0  0  0  0  0  0  0  0  0
    0.2039    4.0213   -1.7248 C   0  0  0  0  0  0  0  0  0  0  0  0
    0.7189    5.0938   -2.3186 F   0  0  0  0  0  0  0  0  0  0  0  0
    0.3598    3.8357   -0.3470 C   0  0  0  0  0  0  0  0  0  0  0  0
    1.0348    4.7279    0.3817 F   0  0  0  0  0  0  0  0  0  0  0  0
   -0.1605    2.6756    0.2456 C   0  0  0  0  0  0  0  0  0  0  0  0
    0.0298    2.5473    1.5705 F   0  0  0  0  0  0  0  0  0  0  0  0
    0.3793   -0.2952    1.2338 C   0  0  0  0  0  0  0  0  0  0  0  0
    0.6359    0.4338    2.0180 H   0  0  0  0  0  0  0  0  0  0  0  0
    0.2288   -1.2949    1.6768 H   0  0  0  0  0  0  0  0  0  0  0  0
    1.6355   -0.4753   -0.1493 P   0  0  0  0  0  0  0  0  0  0  0  0
    2.6063    1.1119    0.0579 C   0  0  0  0  0  0  0  0  0  0  0  0
    2.8087    1.9114   -1.0817 C   0  0  0  0  0  0  0  0  0  0  0  0
    2.3116    1.5468   -2.2760 F   0  0  0  0  0  0  0  0  0  0  0  0
    3.4754    3.1453   -1.0219 C   0  0  0  0  0  0  0  0  0  0  0  0
    3.6062    3.9000   -2.1166 F   0  0  0  0  0  0  0  0  0  0  0  0
    3.9861    3.5920    0.2077 C   0  0  0  0  0  0  0  0  0  0  0  0
    4.6158    4.7620    0.2818 F   0  0  0  0  0  0  0  0  0  0  0  0
    3.8096    2.8142    1.3658 C   0  0  0  0  0  0  0  0  0  0  0  0
    4.2891    3.2468    2.5338 F   0  0  0  0  0  0  0  0  0  0  0  0
    3.1389    1.5847    1.2707 C   0  0  0  0  0  0  0  0  0  0  0  0
    2.9932    0.8699    2.3960 F   0  0  0  0  0  0  0  0  0  0  0  0
    2.8839   -1.6697    0.5165 C   0  0  0  0  0  0  0  0  0  0  0  0
    2.9963   -2.1850    1.8205 C   0  0  0  0  0  0  0  0  0  0  0  0
    2.2022   -1.7640    2.8127 F   0  0  0  0  0  0  0  0  0  0  0  0
    3.9416   -3.1739    2.1436 C   0  0  0  0  0  0  0  0  0  0  0  0
    4.0265   -3.6472    3.3890 F   0  0  0  0  0  0  0  0  0  0  0  0
    4.8127   -3.6578    1.1537 C   0  0  0  0  0  0  0  0  0  0  0  0
    5.7170   -4.5885    1.4568 F   0  0  0  0  0  0  0  0  0  0  0  0
    4.7295   -3.1583   -0.1573 C   0  0  0  0  0  0  0  0  0  0  0  0
    5.5556   -3.6162   -1.1018 F   0  0  0  0  0  0  0  0  0  0  0  0
    3.7716   -2.1783   -0.4523 C   0  0  0  0  0  0  0  0  0  0  0  0
    3.7079   -1.7234   -1.7162 F   0  0  0  0  0  0  0  0  0  0  0  0
  1  6  1  6  0  0  0
  1  5  1  0  0  0  0
  2  1  1  0  0  0  0
  2  3  2  0  0  0  0
  3 14  1  0  0  0  0
  3  4  1  0  0  0  0
  4 18  1  6  0  0  0
  5 22  1  6  0  0  0
  5  4  1  0  0  0  0
  6  9  1  0  0  0  0
  6  8  1  0  0  0  0
  7  6  1  0  0  0  0
 10 12  1  0  0  0  0
 10  2  1  0  0  0  0
 10 13  1  0  0  0  0
 11 10  1  0  0  0  0
 14 16  1  0  0  0  0
 15 14  1  0  0  0  0
 17 14  1  0  0  0  0
 18 20  1  0  0  0  0
 18 21  1  0  0  0  0
 19 18  1  0  0  0  0
 22 23  1  0  0  0  0
 22 38  1  0  0  0  0
 24 22  1  0  0  0  0
 25 47  1  1  0  0  0
 25 26  1  0  0  0  0
 26 35  1  0  0  0  0
 27 26  2  0  0  0  0
 27 29  1  0  0  0  0
 28 27  1  0  0  0  0
 29 31  2  0  0  0  0
 30 29  1  0  0  0  0
 31 33  1  0  0  0  0
 31 32  1  0  0  0  0
 33 34  1  0  0  0  0
 35 36  1  0  0  0  0
 35 33  2  0  0  0  0
 37 45  1  0  0  0  0
 37 25  1  0  0  0  0
 38 37  2  0  0  0  0
 39 38  1  0  0  0  0
 39 41  2  0  0  0  0
 40 39  1  0  0  0  0
 41 43  1  0  0  0  0
 42 41  1  0  0  0  0
 43 45  2  0  0  0  0
 43 44  1  0  0  0  0
 45 46  1  0  0  0  0
 47 49  1  0  0  0  0
 47 48  1  0  0  0  0
 50 51  1  0  0  0  0
 50 62  1  0  0  0  0
 50 47  1  0  0  0  0
 51 60  1  0  0  0  0
 52 54  1  0  0  0  0
 52 51  2  0  0  0  0
 53 52  1  0  0  0  0
 54 56  2  0  0  0  0
 55 54  1  0  0  0  0
 56 57  1  0  0  0  0
 56 58  1  0  0  0  0
 58 59  1  0  0  0  0
 60 58  2  0  0  0  0
 60 61  1  0  0  0  0
 62 63  1  0  0  0  0
 63 65  2  0  0  0  0
 63 64  1  0  0  0  0
 65 66  1  0  0  0  0
 67 68  1  0  0  0  0
 67 65  1  0  0  0  0
 69 67  2  0  0  0  0
 70 69  1  0  0  0  0
 71 69  1  0  0  0  0
 71 62  2  0  0  0  0
 72 71  1  0  0  0  0
M  END
