5
 OpenBabel05122313113D

 19 20  0  0  1  0  0  0  0  0999 V2000
    1.9159    0.7055   -0.5582 C   0  0  0  0  0  0  0  0  0  0  0  0
    2.2598   -0.3120    0.3841 C   0  0  2  0  0  3  0  0  0  0  0  0
    2.0586   -1.7005    0.0698 C   0  0  0  0  0  0  0  0  0  0  0  0
    1.5051   -2.0516   -1.1957 C   0  0  0  0  0  0  0  0  0  0  0  0
    1.1373   -1.0252   -2.1402 C   0  0  0  0  0  3  0  0  0  0  0  0
    1.3297    0.3474   -1.8203 C   0  0  0  0  0  0  0  0  0  0  0  0
    2.7842    0.3236    1.6483 C   0  0  0  0  0  0  0  0  0  0  0  0
    2.3011    1.7891    1.5368 C   0  0  0  0  0  0  0  0  0  0  0  0
    2.1948    2.0671    0.0206 C   0  0  0  0  0  0  0  0  0  0  0  0
    2.2871   -2.4870    0.8057 H   0  0  0  0  0  0  0  0  0  0  0  0
    1.3085   -3.1094   -1.4289 H   0  0  0  0  0  0  0  0  0  0  0  0
    0.6486   -1.2972   -3.0876 H   0  0  0  0  0  0  0  0  0  0  0  0
    0.9661    1.1258   -2.5061 H   0  0  0  0  0  0  0  0  0  0  0  0
    3.8952    0.2600    1.6278 H   0  0  0  0  0  0  0  0  0  0  0  0
    2.4620   -0.1905    2.5766 H   0  0  0  0  0  0  0  0  0  0  0  0
    2.9649    2.5002    2.0623 H   0  0  0  0  0  0  0  0  0  0  0  0
    1.2906    1.8869    1.9870 H   0  0  0  0  0  0  0  0  0  0  0  0
    3.1603    2.4305   -0.3969 H   0  0  0  0  0  0  0  0  0  0  0  0
    1.4175    2.8115   -0.2386 H   0  0  0  0  0  0  0  0  0  0  0  0
  1  9  1  0  0  0  0
  2  1  1  1  0  0  0
  2  7  1  0  0  0  0
  3  2  1  0  0  0  0
  3 10  1  0  0  0  0
  4  3  2  0  0  0  0
  5  6  1  0  0  0  0
  5  4  1  0  0  0  0
  6  1  2  0  0  0  0
  7 15  1  0  0  0  0
  8  7  1  0  0  0  0
  8 17  1  0  0  0  0
  8 16  1  0  0  0  0
  9  8  1  0  0  0  0
 11  4  1  0  0  0  0
 12  5  1  0  0  0  0
 13  6  1  0  0  0  0
 14  7  1  0  0  0  0
 18  9  1  0  0  0  0
 19  9  1  0  0  0  0
M  END
