5
 OpenBabel05122313113D

 22 23  0  0  0  0  0  0  0  0999 V2000
   -2.4019    2.2336    0.6710 N   0  0  0  0  0  0  0  0  0  0  0  0
   -0.7573    2.5772   -0.6900 N   0  0  0  0  0  0  0  0  0  0  0  0
    1.5557    3.0790   -1.1671 N   0  0  0  0  0  0  0  0  0  0  0  0
    2.2823    2.6378   -0.1146 N   0  0  0  0  0  0  0  0  0  0  0  0
   -1.3984    1.5762    0.0033 C   0  0  0  0  0  2  0  0  0  0  0  0
   -2.3725    3.6012    0.4130 C   0  0  0  0  0  0  0  0  0  0  0  0
   -3.0900    4.2960    0.8599 H   0  0  0  0  0  0  0  0  0  0  0  0
   -1.3364    3.8203   -0.4496 C   0  0  0  0  0  0  0  0  0  0  0  0
   -0.9589    4.7440   -0.8979 H   0  0  0  0  0  0  0  0  0  0  0  0
   -3.3872    1.5953    1.5312 C   0  0  0  0  0  0  0  0  0  0  0  0
   -3.2355    0.5017    1.4596 H   0  0  0  0  0  0  0  0  0  0  0  0
   -4.4111    1.8489    1.1948 H   0  0  0  0  0  0  0  0  0  0  0  0
   -3.2610    1.9222    2.5824 H   0  0  0  0  0  0  0  0  0  0  0  0
    0.3766    2.3588   -1.5791 C   0  0  0  0  0  0  0  0  0  0  0  0
    0.5655    1.2674   -1.5704 H   0  0  0  0  0  0  0  0  0  0  0  0
    0.1176    2.6809   -2.6067 H   0  0  0  0  0  0  0  0  0  0  0  0
    1.9925    4.2949   -1.6343 C   0  0  0  0  0  0  0  0  0  0  0  0
    1.5149    4.7896   -2.4882 H   0  0  0  0  0  0  0  0  0  0  0  0
    3.0769    4.6536   -0.8443 C   0  0  0  0  0  0  0  0  0  0  0  0
    3.6936    5.5537   -0.9328 H   0  0  0  0  0  0  0  0  0  0  0  0
    3.2087    3.5848    0.0821 C   0  0  0  0  0  0  0  0  0  0  0  0
    3.9496    3.4639    0.8829 H   0  0  0  0  0  0  0  0  0  0  0  0
  1 10  1  0  0  0  0
  2  8  1  0  0  0  0
  2  5  1  0  0  0  0
  3  4  1  0  0  0  0
  4 21  2  0  0  0  0
  5  1  1  0  0  0  0
  6  1  1  0  0  0  0
  6  7  1  0  0  0  0
  8  6  2  0  0  0  0
  9  8  1  0  0  0  0
 10 13  1  0  0  0  0
 11 10  1  0  0  0  0
 12 10  1  0  0  0  0
 14 15  1  0  0  0  0
 14  3  1  0  0  0  0
 14  2  1  0  0  0  0
 16 14  1  0  0  0  0
 17  3  1  0  0  0  0
 17 19  2  0  0  0  0
 18 17  1  0  0  0  0
 19 21  1  0  0  0  0
 20 19  1  0  0  0  0
 21 22  1  0  0  0  0
M  END
