2
 OpenBabel05122313113D

 19 19  0  0  0  0  0  0  0  0999 V2000
    5.5146   -0.2328    0.0380 N   0  0  0  0  0  0  0  0  0  0  0  0
    1.2140   -0.0510    0.0070 C   0  0  0  0  0  3  0  0  0  0  0  0
    1.9690   -0.3384   -1.1527 C   0  0  0  0  0  0  0  0  0  0  0  0
    1.4566   -0.5383   -2.1090 H   0  0  0  0  0  0  0  0  0  0  0  0
    3.3726   -0.3835   -1.1611 C   0  0  0  0  0  0  0  0  0  0  0  0
    3.8847   -0.6066   -2.1072 H   0  0  0  0  0  0  0  0  0  0  0  0
    4.1201   -0.1595    0.0248 C   0  0  0  0  0  0  0  0  0  0  0  0
    3.3777    0.1429    1.1965 C   0  0  0  0  0  0  0  0  0  0  0  0
    3.8943    0.3497    2.1439 H   0  0  0  0  0  0  0  0  0  0  0  0
    1.9745    0.1915    1.1734 C   0  0  0  0  0  0  0  0  0  0  0  0
    1.4669    0.4410    2.1205 H   0  0  0  0  0  0  0  0  0  0  0  0
    6.2277   -0.3480   -1.2127 C   0  0  0  0  0  0  0  0  0  0  0  0
    5.9300   -1.2640   -1.7692 H   0  0  0  0  0  0  0  0  0  0  0  0
    7.3128   -0.4232   -1.0117 H   0  0  0  0  0  0  0  0  0  0  0  0
    6.0635    0.5203   -1.8987 H   0  0  0  0  0  0  0  0  0  0  0  0
    6.2334    0.1876    1.2180 C   0  0  0  0  0  0  0  0  0  0  0  0
    5.9344   -0.4057    2.1102 H   0  0  0  0  0  0  0  0  0  0  0  0
    6.0765    1.2654    1.4734 H   0  0  0  0  0  0  0  0  0  0  0  0
    7.3171    0.0278    1.0648 H   0  0  0  0  0  0  0  0  0  0  0  0
  1 16  1  0  0  0  0
  2 10  1  0  0  0  0
  3  2  2  0  0  0  0
  4  3  1  0  0  0  0
  5  3  1  0  0  0  0
  5  7  2  0  0  0  0
  6  5  1  0  0  0  0
  7  1  1  0  0  0  0
  7  8  1  0  0  0  0
  8  9  1  0  0  0  0
 10  8  2  0  0  0  0
 10 11  1  0  0  0  0
 12 14  1  0  0  0  0
 12  1  1  0  0  0  0
 13 12  1  0  0  0  0
 15 12  1  0  0  0  0
 16 18  1  0  0  0  0
 16 17  1  0  0  0  0
 19 16  1  0  0  0  0
M  END
