8
 OpenBabel05122313113D

 49 52  0  0  0  0  0  0  0  0999 V2000
   -8.7060   -0.4752    0.0005 Br  0  0  0  0  0  0  0  0  0  0  0  0
   -1.7325   -2.0147   -0.0004 N   0  0  0  0  0  0  0  0  0  0  0  0
    0.5545   -1.6408   -0.0002 N   0  0  0  0  0  0  0  0  0  0  0  0
    2.7028   -1.9348   -0.0000 N   0  0  0  0  0  0  0  0  0  0  0  0
   -3.0058   -1.6546   -0.0004 N   0  0  0  0  0  0  0  0  0  0  0  0
   -4.6967   -0.0324   -0.0003 N   0  0  0  0  0  0  0  0  0  0  0  0
   -5.0361    1.2909   -0.0008 N   0  0  0  0  0  0  0  0  0  0  0  0
    1.7532   -0.9524   -0.0000 C   0  0  0  0  0  2  0  0  0  0  0  0
    0.7734   -3.0241   -0.0003 C   0  0  0  0  0  0  0  0  0  0  0  0
   -0.0709   -3.7163   -0.0004 H   0  0  0  0  0  0  0  0  0  0  0  0
    2.1264   -3.2027   -0.0002 C   0  0  0  0  0  0  0  0  0  0  0  0
    2.7346   -4.1116   -0.0002 H   0  0  0  0  0  0  0  0  0  0  0  0
    4.1204   -1.6765    0.0002 C   0  0  0  0  0  0  0  0  0  0  0  0
    4.7850   -1.5518   -1.2384 C   0  0  0  0  0  0  0  0  0  0  0  0
    6.1686   -1.3083   -1.2090 C   0  0  0  0  0  0  0  0  0  0  0  0
    6.7067   -1.2050   -2.1647 H   0  0  0  0  0  0  0  0  0  0  0  0
    6.8774   -1.1815    0.0004 C   0  0  0  0  0  0  0  0  0  0  0  0
    6.1682   -1.3075    1.2096 C   0  0  0  0  0  0  0  0  0  0  0  0
    6.7061   -1.2035    2.1653 H   0  0  0  0  0  0  0  0  0  0  0  0
    4.7846   -1.5509    1.2388 C   0  0  0  0  0  0  0  0  0  0  0  0
    4.0239   -1.6293   -2.5352 C   0  0  0  0  0  0  0  0  0  0  0  0
    3.4076   -2.5491   -2.6046 H   0  0  0  0  0  0  0  0  0  0  0  0
    4.7098   -1.6059   -3.4023 H   0  0  0  0  0  0  0  0  0  0  0  0
    3.3265   -0.7690   -2.6258 H   0  0  0  0  0  0  0  0  0  0  0  0
    8.3533   -0.8745    0.0002 C   0  0  0  0  0  0  0  0  0  0  0  0
    8.8583   -1.2912   -0.8932 H   0  0  0  0  0  0  0  0  0  0  0  0
    8.8551   -1.2739    0.9032 H   0  0  0  0  0  0  0  0  0  0  0  0
    8.5233    0.2236   -0.0104 H   0  0  0  0  0  0  0  0  0  0  0  0
    4.0232   -1.6273    2.5355 C   0  0  0  0  0  0  0  0  0  0  0  0
    3.3276   -0.7656    2.6262 H   0  0  0  0  0  0  0  0  0  0  0  0
    4.7090   -1.6056    3.4026 H   0  0  0  0  0  0  0  0  0  0  0  0
    3.4050   -2.5459    2.6045 H   0  0  0  0  0  0  0  0  0  0  0  0
   -0.7628   -1.0930   -0.0002 C   0  0  0  0  0  0  0  0  0  0  0  0
   -1.0271    0.2947   -0.0002 C   0  0  0  0  0  0  0  0  0  0  0  0
   -0.2059    1.0316   -0.0001 H   0  0  0  0  0  0  0  0  0  0  0  0
   -2.3574    0.6785   -0.0002 C   0  0  0  0  0  0  0  0  0  0  0  0
   -2.6758    1.7284   -0.0001 H   0  0  0  0  0  0  0  0  0  0  0  0
   -3.3283   -0.3530   -0.0003 C   0  0  0  0  0  0  0  0  0  0  0  0
   -5.8045   -0.8754    0.0002 C   0  0  0  0  0  0  0  0  0  0  0  0
   -6.8884   -0.0004    0.0000 C   0  0  0  0  0  0  0  0  0  0  0  0
   -6.3665    1.3318   -0.0006 C   0  0  0  0  0  0  0  0  0  0  0  0
   -5.7977   -2.3638    0.0009 C   0  0  0  0  0  0  0  0  0  0  0  0
   -6.8462   -2.7181    0.0014 H   0  0  0  0  0  0  0  0  0  0  0  0
   -5.2706   -2.7715    0.8848 H   0  0  0  0  0  0  0  0  0  0  0  0
   -5.2713   -2.7722   -0.8831 H   0  0  0  0  0  0  0  0  0  0  0  0
   -7.1211    2.6177   -0.0011 C   0  0  0  0  0  0  0  0  0  0  0  0
   -6.4172    3.4698   -0.0018 H   0  0  0  0  0  0  0  0  0  0  0  0
   -7.7778    2.6927    0.8899 H   0  0  0  0  0  0  0  0  0  0  0  0
   -7.7785    2.6917   -0.8916 H   0  0  0  0  0  0  0  0  0  0  0  0
  2 33  1  0  0  0  0
  3  8  1  0  0  0  0
  4 13  1  0  0  0  0
  5  2  2  0  0  0  0
  5 38  1  0  0  0  0
  6 38  1  0  0  0  0
  6 39  1  0  0  0  0
  7 41  2  0  0  0  0
  7  6  1  0  0  0  0
  8  4  1  0  0  0  0
  9 11  2  0  0  0  0
  9  3  1  0  0  0  0
 10  9  1  0  0  0  0
 11 12  1  0  0  0  0
 11  4  1  0  0  0  0
 13 20  1  0  0  0  0
 14 15  1  0  0  0  0
 14 13  2  0  0  0  0
 15 17  2  0  0  0  0
 16 15  1  0  0  0  0
 17 18  1  0  0  0  0
 18 20  2  0  0  0  0
 18 19  1  0  0  0  0
 20 29  1  0  0  0  0
 21 14  1  0  0  0  0
 22 21  1  0  0  0  0
 23 21  1  0  0  0  0
 24 21  1  0  0  0  0
 25 17  1  0  0  0  0
 25 27  1  0  0  0  0
 26 25  1  0  0  0  0
 28 25  1  0  0  0  0
 29 32  1  0  0  0  0
 29 30  1  0  0  0  0
 29 31  1  0  0  0  0
 33  3  1  0  0  0  0
 33 34  2  0  0  0  0
 34 35  1  0  0  0  0
 36 34  1  0  0  0  0
 36 37  1  0  0  0  0
 38 36  2  0  0  0  0
 39 42  1  0  0  0  0
 40 39  2  0  0  0  0
 40  1  1  0  0  0  0
 41 40  1  0  0  0  0
 42 43  1  0  0  0  0
 42 44  1  0  0  0  0
 45 42  1  0  0  0  0
 46 41  1  0  0  0  0
 46 48  1  0  0  0  0
 47 46  1  0  0  0  0
 49 46  1  0  0  0  0
M  END
