1
 OpenBabel05122313113D

 24 24  0  0  1  0  0  0  0  0999 V2000
   -1.2935    1.1629    0.8252 C   0  0  2  0  0  3  0  0  0  0  0  0
   -1.9345    0.0103    0.0641 C   0  0  1  0  0  3  0  0  0  0  0  0
   -1.5218   -0.1656    1.4084 C   0  0  2  0  0  3  0  0  0  0  0  0
   -1.7593    2.5132    1.2573 C   0  0  0  0  0  0  0  0  0  0  0  0
   -3.1968   -0.1557   -0.7553 C   0  0  0  0  0  0  0  0  0  0  0  0
   -3.3177    0.9589   -1.8132 C   0  0  0  0  0  0  0  0  0  0  0  0
   -4.4026   -0.0702    0.2081 C   0  0  0  0  0  0  0  0  0  0  0  0
   -3.1934   -1.5399   -1.4334 C   0  0  0  0  0  0  0  0  0  0  0  0
   -1.9427   -0.7627    2.6988 C   0  0  0  0  0  0  0  0  0  0  0  0
   -1.1362    2.9012    2.0911 H   0  0  0  0  0  0  0  0  0  0  0  0
   -2.8036    2.4606    1.6329 H   0  0  0  0  0  0  0  0  0  0  0  0
   -1.7479    3.2705    0.4457 H   0  0  0  0  0  0  0  0  0  0  0  0
   -4.2573    0.8383   -2.3914 H   0  0  0  0  0  0  0  0  0  0  0  0
   -2.4663    0.9287   -2.5180 H   0  0  0  0  0  0  0  0  0  0  0  0
   -3.3402    1.9601   -1.3352 H   0  0  0  0  0  0  0  0  0  0  0  0
   -5.3521   -0.1624   -0.3589 H   0  0  0  0  0  0  0  0  0  0  0  0
   -4.4254    0.8986    0.7485 H   0  0  0  0  0  0  0  0  0  0  0  0
   -4.3729   -0.8832    0.9601 H   0  0  0  0  0  0  0  0  0  0  0  0
   -4.1473   -1.6979   -1.9784 H   0  0  0  0  0  0  0  0  0  0  0  0
   -3.0775   -2.3465   -0.6831 H   0  0  0  0  0  0  0  0  0  0  0  0
   -2.3550   -1.6246   -2.1499 H   0  0  0  0  0  0  0  0  0  0  0  0
   -1.2074   -0.5382    3.4954 H   0  0  0  0  0  0  0  0  0  0  0  0
   -2.0147   -1.8642    2.5923 H   0  0  0  0  0  0  0  0  0  0  0  0
   -2.9367   -0.3791    3.0133 H   0  0  0  0  0  0  0  0  0  0  0  0
  1  4  1  1  0  0  0
  1  3  1  0  0  0  0
  2  5  1  1  0  0  0
  2  1  1  0  0  0  0
  2  3  1  0  0  0  0
  3  9  1  1  0  0  0
  4 11  1  0  0  0  0
  4 10  1  0  0  0  0
  5  7  1  0  0  0  0
  6 15  1  0  0  0  0
  6  5  1  0  0  0  0
  7 17  1  0  0  0  0
  7 18  1  0  0  0  0
  8  5  1  0  0  0  0
  8 20  1  0  0  0  0
  9 24  1  0  0  0  0
  9 22  1  0  0  0  0
 12  4  1  0  0  0  0
 13  6  1  0  0  0  0
 14  6  1  0  0  0  0
 16  7  1  0  0  0  0
 19  8  1  0  0  0  0
 21  8  1  0  0  0  0
 23  9  1  0  0  0  0
M  END
