7
 OpenBabel05122313113D

 38 44  0  0  1  0  0  0  0  0999 V2000
    5.8120   -1.6402    0.0246 F   0  0  0  0  0  0  0  0  0  0  0  0
   -2.0661   -1.5562   -0.4314 C   0  0  2  0  0  0  0  0  0  0  0  0
   -1.9005    0.0452    0.1093 C   0  0  1  0  0  0  0  0  0  0  0  0
   -0.7417   -2.2245   -0.7844 C   0  0  0  0  0  0  0  0  0  0  0  0
   -0.9210   -2.9280   -1.6256 H   0  0  0  0  0  0  0  0  0  0  0  0
   -0.4326   -2.8413    0.0809 H   0  0  0  0  0  0  0  0  0  0  0  0
    0.3079   -1.1886   -1.1207 C   0  0  0  0  0  3  0  0  0  0  0  0
    0.1070   -0.6921   -2.0896 H   0  0  0  0  0  0  0  0  0  0  0  0
    1.7257   -1.4015   -0.8921 C   0  0  0  0  0  0  0  0  0  0  0  0
    2.2650   -2.4678   -0.0984 C   0  0  0  0  0  0  0  0  0  0  0  0
    1.5972   -3.2610    0.2661 H   0  0  0  0  0  0  0  0  0  0  0  0
    3.6211   -2.5460    0.1948 C   0  0  0  0  0  0  0  0  0  0  0  0
    4.0306   -3.3801    0.7835 H   0  0  0  0  0  0  0  0  0  0  0  0
    4.5034   -1.5467   -0.2736 C   0  0  0  0  0  0  0  0  0  0  0  0
    4.0396   -0.5005   -1.0647 C   0  0  0  0  0  0  0  0  0  0  0  0
    4.7524    0.2340   -1.4665 H   0  0  0  0  0  0  0  0  0  0  0  0
    2.6646   -0.4324   -1.3761 C   0  0  0  0  0  0  0  0  0  0  0  0
    2.3397    0.2937   -2.1315 H   0  0  0  0  0  0  0  0  0  0  0  0
   -2.5871   -0.3023   -1.4422 B   0  0  2  0  0  0  0  0  0  0  0  0
   -1.9627   -0.0684   -2.4448 H   0  0  0  0  0  0  0  0  0  0  0  0
   -3.5120   -1.8155   -1.3094 B   0  0  2  0  0  0  0  0  0  0  0  0
   -3.4606   -2.5865   -2.2373 H   0  0  0  0  0  0  0  0  0  0  0  0
   -3.3290   -2.3928    0.3527 B   0  0  0  0  0  0  0  0  0  0  0  0
   -3.1507   -3.5650    0.5840 H   0  0  0  0  0  0  0  0  0  0  0  0
   -2.3055   -1.2223    1.2129 B   0  0  1  0  0  0  0  0  0  0  0  0
   -1.4945   -1.6345    1.9971 H   0  0  0  0  0  0  0  0  0  0  0  0
   -3.3248    0.8961   -0.3764 B   0  0  1  0  0  0  0  0  0  0  0  0
   -3.2476    2.0697   -0.6426 H   0  0  0  0  0  0  0  0  0  0  0  0
   -4.3554   -0.2521   -1.2683 B   0  0  1  0  0  0  0  0  0  0  0  0
   -5.0384    0.1175   -2.1956 H   0  0  0  0  0  0  0  0  0  0  0  0
   -4.8223   -1.5555   -0.1339 B   0  0  1  0  0  0  0  0  0  0  0  0
   -5.8686   -2.1552   -0.2272 H   0  0  0  0  0  0  0  0  0  0  0  0
   -4.0632   -1.1943    1.4470 B   0  0  0  0  0  2  0  0  0  0  0  0
   -4.5317   -1.5251    2.5118 H   0  0  0  0  0  0  0  0  0  0  0  0
   -3.1417    0.3267    1.2737 B   0  0  2  0  0  0  0  0  0  0  0  0
   -2.9150    1.1002    2.1745 H   0  0  0  0  0  0  0  0  0  0  0  0
   -4.7091    0.1292    0.4402 B   0  0  1  0  0  0  0  0  0  0  0  0
   -5.6707    0.7851    0.7698 H   0  0  0  0  0  0  0  0  0  0  0  0
  2  4  1  6  0  0  0
  2  3  1  0  0  0  0
  2 25  1  0  0  0  0
  3 25  1  0  0  0  0
  3 35  1  0  0  0  0
  4  6  1  0  0  0  0
  5  4  1  0  0  0  0
  7  9  1  0  0  0  0
  7  4  1  0  0  0  0
  8  7  1  0  0  0  0
  9 10  1  0  0  0  0
 10 12  2  0  0  0  0
 10 11  1  0  0  0  0
 12 13  1  0  0  0  0
 14  1  1  0  0  0  0
 14 12  1  0  0  0  0
 15 14  2  0  0  0  0
 16 15  1  0  0  0  0
 17 15  1  0  0  0  0
 17  9  2  0  0  0  0
 18 17  1  0  0  0  0
 19 29  1  0  0  0  0
 19  2  1  0  0  0  0
 19 27  1  0  0  0  0
 20 19  1  0  0  0  0
 21 29  1  0  0  0  0
 21 31  1  0  0  0  0
 21 23  1  0  0  0  0
 22 21  1  0  0  0  0
 23 24  1  0  0  0  0
 25 35  1  0  0  0  0
 25 26  1  0  0  0  0
 27  3  1  0  0  0  0
 27 35  1  0  0  0  0
 28 27  1  0  0  0  0
 29 37  1  0  0  0  0
 30 29  1  0  0  0  0
 31 23  1  0  0  0  0
 31 37  1  0  0  0  0
 32 31  1  0  0  0  0
 33 34  1  0  0  0  0
 35 36  1  0  0  0  0
 37 38  1  0  0  0  0
 37 33  1  0  0  0  0
M  END
