2
 OpenBabel05122313113D

 43 42  0  0  0  0  0  0  0  0999 V2000
    0.9678   -1.1440    0.0953 P   0  0  0  0  0  0  0  0  0  0  0  0
    0.3124    1.1994   -0.2506 C   0  0  0  0  0  3  0  0  0  0  0  0
    1.5246    0.5726   -0.0744 C   0  0  0  0  0  0  0  0  0  0  0  0
    1.5036   -1.8523    1.7848 C   0  0  0  0  0  0  0  0  0  0  0  0
    1.4419   -0.6676    2.7678 C   0  0  0  0  0  0  0  0  0  0  0  0
    2.2961    0.0175    2.6101 H   0  0  0  0  0  0  0  0  0  0  0  0
    1.4930   -1.0524    3.8084 H   0  0  0  0  0  0  0  0  0  0  0  0
    0.5092   -0.0823    2.6605 H   0  0  0  0  0  0  0  0  0  0  0  0
    0.4745   -2.9317    2.1680 C   0  0  0  0  0  0  0  0  0  0  0  0
    0.5057   -3.7981    1.4787 H   0  0  0  0  0  0  0  0  0  0  0  0
   -0.5597   -2.5335    2.1546 H   0  0  0  0  0  0  0  0  0  0  0  0
    0.6934   -3.3067    3.1903 H   0  0  0  0  0  0  0  0  0  0  0  0
    2.9278   -2.4280    1.8152 C   0  0  0  0  0  0  0  0  0  0  0  0
    3.0331   -3.3362    1.1915 H   0  0  0  0  0  0  0  0  0  0  0  0
    3.1657   -2.7206    2.8606 H   0  0  0  0  0  0  0  0  0  0  0  0
    3.6672   -1.6709    1.4911 H   0  0  0  0  0  0  0  0  0  0  0  0
    1.7013   -2.1255   -1.3775 C   0  0  0  0  0  0  0  0  0  0  0  0
    1.0707   -1.5495   -2.6601 C   0  0  0  0  0  0  0  0  0  0  0  0
   -0.0049   -1.7798   -2.7469 H   0  0  0  0  0  0  0  0  0  0  0  0
    1.5867   -1.9985   -3.5348 H   0  0  0  0  0  0  0  0  0  0  0  0
    1.1926   -0.4499   -2.7216 H   0  0  0  0  0  0  0  0  0  0  0  0
    3.2269   -1.9426   -1.4791 C   0  0  0  0  0  0  0  0  0  0  0  0
    3.7732   -2.3078   -0.5936 H   0  0  0  0  0  0  0  0  0  0  0  0
    3.5075   -0.8850   -1.6350 H   0  0  0  0  0  0  0  0  0  0  0  0
    3.5839   -2.5196   -2.3587 H   0  0  0  0  0  0  0  0  0  0  0  0
    1.3537   -3.6184   -1.2406 C   0  0  0  0  0  0  0  0  0  0  0  0
    0.2670   -3.7943   -1.1349 H   0  0  0  0  0  0  0  0  0  0  0  0
    1.8753   -4.0926   -0.3866 H   0  0  0  0  0  0  0  0  0  0  0  0
    1.6856   -4.1464   -2.1596 H   0  0  0  0  0  0  0  0  0  0  0  0
    0.1519    2.6515   -0.5289 C   0  0  0  0  0  0  0  0  0  0  0  0
    0.0052    3.1218   -1.6412 O   0  0  0  0  0  0  0  0  0  0  0  0
    0.1156    3.3928    0.6151 O   0  0  0  0  0  0  0  0  0  0  0  0
   -0.0231    4.8042    0.4114 C   0  0  0  0  0  0  0  0  0  0  0  0
    0.8651    5.2105   -0.1140 H   0  0  0  0  0  0  0  0  0  0  0  0
   -0.1115    5.2539    1.4166 H   0  0  0  0  0  0  0  0  0  0  0  0
   -0.9197    5.0335   -0.1993 H   0  0  0  0  0  0  0  0  0  0  0  0
    2.8699    1.1464    0.0554 C   0  0  0  0  0  0  0  0  0  0  0  0
    3.8561    0.5510    0.4819 O   0  0  0  0  0  0  0  0  0  0  0  0
    2.9074    2.4557   -0.3145 O   0  0  0  0  0  0  0  0  0  0  0  0
    4.1660    3.1098   -0.1414 C   0  0  0  0  0  0  0  0  0  0  0  0
    4.4680    3.1156    0.9261 H   0  0  0  0  0  0  0  0  0  0  0  0
    4.0273    4.1426   -0.5082 H   0  0  0  0  0  0  0  0  0  0  0  0
    4.9614    2.5984   -0.7205 H   0  0  0  0  0  0  0  0  0  0  0  0
  1  4  1  0  0  0  0
  2  3  2  0  0  0  0
  3 37  1  0  0  0  0
  3  1  1  0  0  0  0
  4 13  1  0  0  0  0
  4  9  1  0  0  0  0
  4  5  1  0  0  0  0
  5  7  1  0  0  0  0
  6  5  1  0  0  0  0
  8  5  1  0  0  0  0
  9 12  1  0  0  0  0
 10  9  1  0  0  0  0
 11  9  1  0  0  0  0
 13 15  1  0  0  0  0
 14 13  1  0  0  0  0
 16 13  1  0  0  0  0
 17 26  1  0  0  0  0
 17  1  1  0  0  0  0
 18 17  1  0  0  0  0
 19 18  1  0  0  0  0
 20 18  1  0  0  0  0
 21 18  1  0  0  0  0
 22 17  1  0  0  0  0
 22 23  1  0  0  0  0
 24 22  1  0  0  0  0
 25 22  1  0  0  0  0
 26 27  1  0  0  0  0
 26 28  1  0  0  0  0
 29 26  1  0  0  0  0
 30  2  1  0  0  0  0
 30 32  1  0  0  0  0
 31 30  2  0  0  0  0
 33 32  1  0  0  0  0
 33 35  1  0  0  0  0
 34 33  1  0  0  0  0
 36 33  1  0  0  0  0
 37 38  2  0  0  0  0
 39 40  1  0  0  0  0
 39 37  1  0  0  0  0
 40 41  1  0  0  0  0
 42 40  1  0  0  0  0
 43 40  1  0  0  0  0
M  END
