5
 OpenBabel05122313113D

 63 66  0  0  1  0  0  0  0  0999 V2000
    2.1868    1.5457   -0.9712 O   0  0  0  0  0  0  0  0  0  0  0  0
   -1.2892   -1.4343    1.6093 O   0  0  0  0  0  0  0  0  0  0  0  0
   -0.8249   -1.5887   -1.2846 O   0  0  0  0  0  0  0  0  0  0  0  0
   -1.3962    0.7724    0.8684 N   0  0  0  0  0  0  0  0  0  0  0  0
    2.1775    0.4257   -0.2436 C   0  0  0  0  0  2  0  0  0  0  0  0
    0.8786    0.2007    0.3153 C   0  0  0  0  0  0  0  0  0  0  0  0
   -0.1233    1.1486    0.5257 C   0  0  0  0  0  0  0  0  0  0  0  0
   -2.3246    1.6450    1.6293 C   0  0  0  0  0  0  0  0  0  0  0  0
   -2.6878    2.4724    0.9868 H   0  0  0  0  0  0  0  0  0  0  0  0
   -1.7989    2.0988    2.4943 H   0  0  0  0  0  0  0  0  0  0  0  0
   -3.5058    0.7247    2.0231 C   0  0  0  0  0  0  0  0  0  0  0  0
   -3.3295    0.2882    3.0295 H   0  0  0  0  0  0  0  0  0  0  0  0
   -4.4679    1.2705    2.0411 H   0  0  0  0  0  0  0  0  0  0  0  0
   -3.4145   -0.3121    0.9540 C   0  0  2  0  0  3  0  0  0  0  0  0
   -3.2523   -1.1950   -1.1941 C   0  0  0  0  0  0  0  0  0  0  0  0
   -1.9600   -1.1260   -0.7536 C   0  0  0  0  0  0  0  0  0  0  0  0
   -1.9374   -0.5725    0.6857 C   0  0  2  0  0  0  0  0  0  0  0  0
   -1.7270   -2.7965    1.6003 C   0  0  0  0  0  0  0  0  0  0  0  0
   -1.4838   -3.2686    0.6214 H   0  0  0  0  0  0  0  0  0  0  0  0
   -2.8344   -2.8351    1.7288 H   0  0  0  0  0  0  0  0  0  0  0  0
   -1.0115   -3.5203    2.7244 C   0  0  0  0  0  0  0  0  0  0  0  0
    0.0834   -3.5066    2.5575 H   0  0  0  0  0  0  0  0  0  0  0  0
   -1.3413   -4.5771    2.7711 H   0  0  0  0  0  0  0  0  0  0  0  0
   -1.2258   -3.0420    3.7008 H   0  0  0  0  0  0  0  0  0  0  0  0
   -0.9216   -2.2449   -2.5594 C   0  0  0  0  0  0  0  0  0  0  0  0
   -1.3672   -1.5342   -3.2924 H   0  0  0  0  0  0  0  0  0  0  0  0
   -1.6235   -3.1049   -2.4606 H   0  0  0  0  0  0  0  0  0  0  0  0
    0.4635   -2.6903   -2.9769 C   0  0  0  0  0  0  0  0  0  0  0  0
    1.1477   -1.8265   -3.0817 H   0  0  0  0  0  0  0  0  0  0  0  0
    0.4136   -3.2134   -3.9520 H   0  0  0  0  0  0  0  0  0  0  0  0
    0.8945   -3.3821   -2.2279 H   0  0  0  0  0  0  0  0  0  0  0  0
    3.3735    2.1609   -1.4918 C   0  0  0  0  0  0  0  0  0  0  0  0
    3.9557    1.4111   -2.0646 H   0  0  0  0  0  0  0  0  0  0  0  0
    3.9978    2.5017   -0.6406 H   0  0  0  0  0  0  0  0  0  0  0  0
    2.9372    3.3266   -2.3575 C   0  0  0  0  0  0  0  0  0  0  0  0
    2.3106    2.9785   -3.2025 H   0  0  0  0  0  0  0  0  0  0  0  0
    3.8265    3.8410   -2.7718 H   0  0  0  0  0  0  0  0  0  0  0  0
    2.3498    4.0572   -1.7666 H   0  0  0  0  0  0  0  0  0  0  0  0
    0.1273    2.6174    0.4796 C   0  0  0  0  0  0  0  0  0  0  0  0
   -0.5947    3.4438   -0.4055 C   0  0  0  0  0  0  0  0  0  0  0  0
   -1.3419    2.9919   -1.0760 H   0  0  0  0  0  0  0  0  0  0  0  0
   -0.3338    4.8198   -0.4593 C   0  0  0  0  0  0  0  0  0  0  0  0
   -0.8897    5.4549   -1.1656 H   0  0  0  0  0  0  0  0  0  0  0  0
    0.6397    5.3863    0.3807 C   0  0  0  0  0  0  0  0  0  0  0  0
    0.8419    6.4674    0.3396 H   0  0  0  0  0  0  0  0  0  0  0  0
    1.3524    4.5696    1.2748 C   0  0  0  0  0  0  0  0  0  0  0  0
    2.1128    5.0094    1.9378 H   0  0  0  0  0  0  0  0  0  0  0  0
    1.0985    3.1924    1.3256 C   0  0  0  0  0  0  0  0  0  0  0  0
    1.6580    2.5412    2.0146 H   0  0  0  0  0  0  0  0  0  0  0  0
   -5.5856   -0.3949   -0.3569 C   0  0  0  0  0  0  0  0  0  0  0  0
   -6.1113   -0.1844   -1.6542 C   0  0  0  0  0  0  0  0  0  0  0  0
   -5.4348   -0.2076   -2.5215 H   0  0  0  0  0  0  0  0  0  0  0  0
   -7.4736    0.0826   -1.8427 C   0  0  0  0  0  0  0  0  0  0  0  0
   -7.8606    0.2518   -2.8591 H   0  0  0  0  0  0  0  0  0  0  0  0
   -8.3435    0.1355   -0.7417 C   0  0  0  0  0  0  0  0  0  0  0  0
   -9.4146    0.3392   -0.8913 H   0  0  0  0  0  0  0  0  0  0  0  0
   -7.8397   -0.0860    0.5512 C   0  0  0  0  0  0  0  0  0  0  0  0
   -8.5180   -0.0643    1.4178 H   0  0  0  0  0  0  0  0  0  0  0  0
   -6.4786   -0.3526    0.7416 C   0  0  0  0  0  0  0  0  0  0  0  0
   -6.0951   -0.5659    1.7504 H   0  0  0  0  0  0  0  0  0  0  0  0
   -4.1530   -0.6430   -0.1530 C   0  0  2  0  0  3  0  0  0  0  0  0
    0.6489   -0.8138    0.6547 H   0  0  0  0  0  0  0  0  0  0  0  0
   -3.5981   -1.6207   -2.1434 H   0  0  0  0  0  0  0  0  0  0  0  0
  1  5  1  0  0  0  0
  3 16  1  0  0  0  0
  4  8  1  0  0  0  0
  5  6  1  0  0  0  0
  6  7  2  0  0  0  0
  6 62  1  0  0  0  0
  7  4  1  0  0  0  0
  8 11  1  0  0  0  0
  8 10  1  0  0  0  0
  9  8  1  0  0  0  0
 11 13  1  0  0  0  0
 11 12  1  0  0  0  0
 14 11  1  6  0  0  0
 15 16  2  0  0  0  0
 15 61  1  0  0  0  0
 16 17  1  0  0  0  0
 17  4  1  0  0  0  0
 17 14  1  0  0  0  0
 17  2  1  1  0  0  0
 18  2  1  0  0  0  0
 18 20  1  0  0  0  0
 18 21  1  0  0  0  0
 19 18  1  0  0  0  0
 21 23  1  0  0  0  0
 21 24  1  0  0  0  0
 22 21  1  0  0  0  0
 25 27  1  0  0  0  0
 25  3  1  0  0  0  0
 26 25  1  0  0  0  0
 28 25  1  0  0  0  0
 28 31  1  0  0  0  0
 29 28  1  0  0  0  0
 30 28  1  0  0  0  0
 32  1  1  0  0  0  0
 32 34  1  0  0  0  0
 33 32  1  0  0  0  0
 35 38  1  0  0  0  0
 35 32  1  0  0  0  0
 36 35  1  0  0  0  0
 37 35  1  0  0  0  0
 39  7  1  0  0  0  0
 39 48  1  0  0  0  0
 40 39  2  0  0  0  0
 41 40  1  0  0  0  0
 42 40  1  0  0  0  0
 42 44  2  0  0  0  0
 43 42  1  0  0  0  0
 44 46  1  0  0  0  0
 45 44  1  0  0  0  0
 46 48  2  0  0  0  0
 46 47  1  0  0  0  0
 48 49  1  0  0  0  0
 50 59  1  0  0  0  0
 51 50  2  0  0  0  0
 52 51  1  0  0  0  0
 53 51  1  0  0  0  0
 53 55  2  0  0  0  0
 54 53  1  0  0  0  0
 55 57  1  0  0  0  0
 56 55  1  0  0  0  0
 57 59  2  0  0  0  0
 57 58  1  0  0  0  0
 59 60  1  0  0  0  0
 61 50  1  6  0  0  0
 61 14  1  0  0  0  0
 63 15  1  0  0  0  0
M  END
