2
 OpenBabel05122313113D

  7  6  0  0  0  0  0  0  0  0999 V2000
    0.4884    0.9532   -1.6163 C   0  0  0  0  0  3  0  0  0  0  0  0
    1.2721    0.3426   -0.6239 C   0  0  0  0  0  3  0  0  0  0  0  0
    2.4995    0.0043   -0.2538 C   0  0  0  0  0  0  0  0  0  0  0  0
    2.7946   -0.6739    0.8623 F   0  0  0  0  0  0  0  0  0  0  0  0
    3.6191    0.2649   -0.9345 F   0  0  0  0  0  0  0  0  0  0  0  0
    0.4554    2.0541   -1.6978 H   0  0  0  0  0  0  0  0  0  0  0  0
    0.3027    0.4333   -2.5736 H   0  0  0  0  0  0  0  0  0  0  0  0
  1  2  1  0  0  0  0
  2  3  2  0  0  0  0
  3  4  1  0  0  0  0
  5  3  1  0  0  0  0
  6  1  1  0  0  0  0
  7  1  1  0  0  0  0
M  END
