4
 OpenBabel05122313113D

 39 40  0  0  0  0  0  0  0  0999 V2000
   -1.5856    1.0727   -1.4581 N   0  0  0  0  0  0  0  0  0  0  0  0
   -1.9992    1.2817   -2.3741 H   0  0  0  0  0  0  0  0  0  0  0  0
   -3.1012   -0.6751   -1.2259 N   0  0  0  0  0  0  0  0  0  0  0  0
   -2.0539    0.0197   -0.7551 C   0  0  0  0  0  2  0  0  0  0  0  0
   -0.3253    1.7130   -1.1887 C   0  0  0  0  0  0  0  0  0  0  0  0
    0.8149    1.2401   -1.8828 C   0  0  0  0  0  0  0  0  0  0  0  0
    2.0588    1.8240   -1.6000 C   0  0  0  0  0  0  0  0  0  0  0  0
    2.9564    1.4415   -2.1119 H   0  0  0  0  0  0  0  0  0  0  0  0
    2.1854    2.8687   -0.6633 C   0  0  0  0  0  0  0  0  0  0  0  0
    1.0222    3.3434   -0.0319 C   0  0  0  0  0  0  0  0  0  0  0  0
    1.1015    4.1735    0.6880 H   0  0  0  0  0  0  0  0  0  0  0  0
   -0.2513    2.7937   -0.2829 C   0  0  0  0  0  0  0  0  0  0  0  0
    0.6886    0.1289   -2.8933 C   0  0  0  0  0  0  0  0  0  0  0  0
    0.1971   -0.7656   -2.4585 H   0  0  0  0  0  0  0  0  0  0  0  0
    1.6819   -0.1722   -3.2764 H   0  0  0  0  0  0  0  0  0  0  0  0
    0.0741    0.4352   -3.7673 H   0  0  0  0  0  0  0  0  0  0  0  0
    3.5429    3.4452   -0.3513 C   0  0  0  0  0  0  0  0  0  0  0  0
    4.2296    2.6545    0.0180 H   0  0  0  0  0  0  0  0  0  0  0  0
    3.4855    4.2374    0.4194 H   0  0  0  0  0  0  0  0  0  0  0  0
    4.0146    3.8810   -1.2566 H   0  0  0  0  0  0  0  0  0  0  0  0
   -1.4821    3.3414    0.3829 C   0  0  0  0  0  0  0  0  0  0  0  0
   -1.2484    4.2597    0.9533 H   0  0  0  0  0  0  0  0  0  0  0  0
   -1.9416    2.6014    1.0747 H   0  0  0  0  0  0  0  0  0  0  0  0
   -2.2653    3.5833   -0.3652 H   0  0  0  0  0  0  0  0  0  0  0  0
   -3.9655   -0.2632   -2.3404 C   0  0  0  0  0  0  0  0  0  0  0  0
   -3.5641    0.6372   -2.8427 H   0  0  0  0  0  0  0  0  0  0  0  0
   -3.9708   -1.0778   -3.0995 H   0  0  0  0  0  0  0  0  0  0  0  0
   -5.3895    0.0022   -1.8342 C   0  0  0  0  0  0  0  0  0  0  0  0
   -6.0255    0.3214   -2.6859 H   0  0  0  0  0  0  0  0  0  0  0  0
   -5.3483    0.8444   -1.1106 H   0  0  0  0  0  0  0  0  0  0  0  0
   -5.9597   -1.2445   -1.1478 C   0  0  0  0  0  0  0  0  0  0  0  0
   -6.0871   -2.0509   -1.9060 H   0  0  0  0  0  0  0  0  0  0  0  0
   -6.9702   -1.0322   -0.7427 H   0  0  0  0  0  0  0  0  0  0  0  0
   -5.0210   -1.7169   -0.0324 C   0  0  0  0  0  0  0  0  0  0  0  0
   -5.3627   -2.6822    0.3943 H   0  0  0  0  0  0  0  0  0  0  0  0
   -4.9930   -0.9759    0.7932 H   0  0  0  0  0  0  0  0  0  0  0  0
   -3.5887   -1.8854   -0.5424 C   0  0  0  0  0  0  0  0  0  0  0  0
   -3.5286   -2.7222   -1.2764 H   0  0  0  0  0  0  0  0  0  0  0  0
   -2.8867   -2.1046    0.2866 H   0  0  0  0  0  0  0  0  0  0  0  0
  1  5  1  0  0  0  0
  1  4  1  0  0  0  0
  2  1  1  0  0  0  0
  3  4  1  0  0  0  0
  3 37  1  0  0  0  0
  5 12  1  0  0  0  0
  6  7  1  0  0  0  0
  6  5  2  0  0  0  0
  7  9  2  0  0  0  0
  8  7  1  0  0  0  0
  9 17  1  0  0  0  0
  9 10  1  0  0  0  0
 10 11  1  0  0  0  0
 12 10  2  0  0  0  0
 12 21  1  0  0  0  0
 13 14  1  0  0  0  0
 13  6  1  0  0  0  0
 15 13  1  0  0  0  0
 16 13  1  0  0  0  0
 17 18  1  0  0  0  0
 17 19  1  0  0  0  0
 20 17  1  0  0  0  0
 21 22  1  0  0  0  0
 21 23  1  0  0  0  0
 24 21  1  0  0  0  0
 25 28  1  0  0  0  0
 25  3  1  0  0  0  0
 26 25  1  0  0  0  0
 27 25  1  0  0  0  0
 28 31  1  0  0  0  0
 28 30  1  0  0  0  0
 29 28  1  0  0  0  0
 31 33  1  0  0  0  0
 31 34  1  0  0  0  0
 32 31  1  0  0  0  0
 34 35  1  0  0  0  0
 34 36  1  0  0  0  0
 37 34  1  0  0  0  0
 37 39  1  0  0  0  0
 38 37  1  0  0  0  0
M  END
