2
 OpenBabel05122313113D

 14 13  0  0  0  0  0  0  0  0999 V2000
    2.0471    1.2311   -0.5424 C   0  0  0  0  0  3  0  0  0  0  0  0
    2.3506    0.0012    0.1197 C   0  0  0  0  0  3  0  0  0  0  0  0
    2.0479   -1.2321   -0.5365 C   0  0  0  0  0  3  0  0  0  0  0  0
    2.2193    2.5616    0.1340 C   0  0  0  0  0  0  0  0  0  0  0  0
    2.2211   -2.5592    0.1462 C   0  0  0  0  0  0  0  0  0  0  0  0
    2.1126    1.2432   -1.6436 H   0  0  0  0  0  0  0  0  0  0  0  0
    1.4728    3.2986   -0.2242 H   0  0  0  0  0  0  0  0  0  0  0  0
    3.2224    2.9886   -0.0892 H   0  0  0  0  0  0  0  0  0  0  0  0
    2.1283    2.4860    1.2365 H   0  0  0  0  0  0  0  0  0  0  0  0
    2.6324    0.0039    1.1900 H   0  0  0  0  0  0  0  0  0  0  0  0
    2.1134   -1.2494   -1.6376 H   0  0  0  0  0  0  0  0  0  0  0  0
    1.4751   -3.2985   -0.2085 H   0  0  0  0  0  0  0  0  0  0  0  0
    3.2245   -2.9866   -0.0752 H   0  0  0  0  0  0  0  0  0  0  0  0
    2.1302   -2.4785    1.2484 H   0  0  0  0  0  0  0  0  0  0  0  0
  1  2  1  0  0  0  0
  1  4  1  0  0  0  0
  2 10  1  0  0  0  0
  3  2  1  0  0  0  0
  3  5  1  0  0  0  0
  4  9  1  0  0  0  0
  5 14  1  0  0  0  0
  6  1  1  0  0  0  0
  7  4  1  0  0  0  0
  8  4  1  0  0  0  0
 11  3  1  0  0  0  0
 12  5  1  0  0  0  0
 13  5  1  0  0  0  0
M  END
