1
 OpenBabel05122313113D

 22 23  0  0  0  0  0  0  0  0999 V2000
    0.4082    0.0646    0.1557 C   0  0  0  0  0  3  0  0  0  0  0  0
    1.2407    0.0915   -1.0010 C   0  0  0  0  0  0  0  0  0  0  0  0
    0.7710    0.0794   -1.9979 H   0  0  0  0  0  0  0  0  0  0  0  0
    2.6318    0.1218   -0.9073 C   0  0  0  0  0  0  0  0  0  0  0  0
    3.2765    0.1393   -1.7982 H   0  0  0  0  0  0  0  0  0  0  0  0
    3.2562    0.1260    0.3660 C   0  0  0  0  0  0  0  0  0  0  0  0
    2.4481    0.1006    1.5255 C   0  0  0  0  0  0  0  0  0  0  0  0
    2.9555    0.1019    2.5026 H   0  0  0  0  0  0  0  0  0  0  0  0
    1.0535    0.0705    1.4201 C   0  0  0  0  0  0  0  0  0  0  0  0
    0.4455    0.0405    2.3380 H   0  0  0  0  0  0  0  0  0  0  0  0
    4.6421    0.1498    0.5760 N   0  0  0  0  0  2  0  0  0  0  0  0
    5.3563    0.1733   -0.4753 N   0  0  0  0  0  2  0  0  0  0  0  0
    6.7486    0.1932   -0.2314 C   0  0  0  0  0  0  0  0  0  0  0  0
    7.5915    0.2247   -1.3600 C   0  0  0  0  0  0  0  0  0  0  0  0
    7.1411    0.2332   -2.3635 H   0  0  0  0  0  0  0  0  0  0  0  0
    8.9804    0.2440   -1.1634 C   0  0  0  0  0  0  0  0  0  0  0  0
    9.6598    0.2688   -2.0346 H   0  0  0  0  0  0  0  0  0  0  0  0
    9.5629    0.2339    0.0465 N   0  0  0  0  0  0  0  0  0  0  0  0
    8.7485    0.2037    1.1199 C   0  0  0  0  0  0  0  0  0  0  0  0
    9.2468    0.1957    2.1065 H   0  0  0  0  0  0  0  0  0  0  0  0
    7.3518    0.1824    1.0467 C   0  0  0  0  0  0  0  0  0  0  0  0
    6.7142    0.1577    1.9413 H   0  0  0  0  0  0  0  0  0  0  0  0
  1  9  1  0  0  0  0
  2  4  1  0  0  0  0
  2  1  2  0  0  0  0
  3  2  1  0  0  0  0
  4  6  2  0  0  0  0
  5  4  1  0  0  0  0
  6 11  1  0  0  0  0
  6  7  1  0  0  0  0
  7  8  1  0  0  0  0
  9  7  2  0  0  0  0
  9 10  1  0  0  0  0
 12 13  1  0  0  0  0
 12 11  1  0  0  0  0
 13 21  1  0  0  0  0
 14 16  1  0  0  0  0
 14 13  2  0  0  0  0
 15 14  1  0  0  0  0
 16 18  2  0  0  0  0
 17 16  1  0  0  0  0
 18 19  1  0  0  0  0
 19 20  1  0  0  0  0
 21 19  2  0  0  0  0
 21 22  1  0  0  0  0
M  END
