4
 OpenBabel05122313113D

 42 44  0  0  0  0  0  0  0  0999 V2000
   -1.3266   -2.0666   -0.8841 O   0  0  0  0  0  0  0  0  0  0  0  0
    0.0112   -1.8024   -0.9917 N   0  0  0  0  0  0  0  0  0  0  0  0
    1.8684   -0.7535   -1.0847 N   0  0  0  0  0  0  0  0  0  0  0  0
    0.5479   -0.5723   -0.7719 C   0  0  0  0  0  2  0  0  0  0  0  0
    0.9394   -2.7495   -1.4337 C   0  0  0  0  0  0  0  0  0  0  0  0
    2.1382   -2.0704   -1.4925 C   0  0  0  0  0  0  0  0  0  0  0  0
    0.5530   -4.1517   -1.7459 C   0  0  0  0  0  0  0  0  0  0  0  0
    1.3781   -4.6746   -2.2643 H   0  0  0  0  0  0  0  0  0  0  0  0
   -0.3445   -4.1785   -2.3962 H   0  0  0  0  0  0  0  0  0  0  0  0
    0.3112   -4.7303   -0.8289 H   0  0  0  0  0  0  0  0  0  0  0  0
    3.4939   -2.5418   -1.8922 C   0  0  0  0  0  0  0  0  0  0  0  0
    3.4368   -3.5741   -2.2858 H   0  0  0  0  0  0  0  0  0  0  0  0
    4.2019   -2.5346   -1.0380 H   0  0  0  0  0  0  0  0  0  0  0  0
    3.9367   -1.9021   -2.6840 H   0  0  0  0  0  0  0  0  0  0  0  0
   -1.7066   -2.4316    0.4899 C   0  0  0  0  0  0  0  0  0  0  0  0
   -1.0811   -1.8368    1.1883 H   0  0  0  0  0  0  0  0  0  0  0  0
   -1.5151   -3.5181    0.6313 H   0  0  0  0  0  0  0  0  0  0  0  0
   -3.1611   -2.0980    0.6457 C   0  0  0  0  0  0  0  0  0  0  0  0
   -4.1629   -3.0392    0.3421 C   0  0  0  0  0  0  0  0  0  0  0  0
   -3.8751   -4.0545    0.0253 H   0  0  0  0  0  0  0  0  0  0  0  0
   -5.5189   -2.6919    0.4419 C   0  0  0  0  0  0  0  0  0  0  0  0
   -6.2957   -3.4348    0.2050 H   0  0  0  0  0  0  0  0  0  0  0  0
   -5.8828   -1.3969    0.8445 C   0  0  0  0  0  0  0  0  0  0  0  0
   -6.9463   -1.1242    0.9247 H   0  0  0  0  0  0  0  0  0  0  0  0
   -4.8882   -0.4527    1.1508 C   0  0  0  0  0  0  0  0  0  0  0  0
   -5.1700    0.5615    1.4737 H   0  0  0  0  0  0  0  0  0  0  0  0
   -3.5341   -0.8002    1.0508 C   0  0  0  0  0  0  0  0  0  0  0  0
   -2.7422   -0.0708    1.2844 H   0  0  0  0  0  0  0  0  0  0  0  0
    2.8549    0.3215   -0.9927 C   0  0  0  0  0  0  0  0  0  0  0  0
    2.2633    1.2142   -0.6857 H   0  0  0  0  0  0  0  0  0  0  0  0
    3.2722    0.5239   -2.0015 H   0  0  0  0  0  0  0  0  0  0  0  0
    3.9718    0.0442   -0.0098 C   0  0  0  0  0  0  0  0  0  0  0  0
    5.3152    0.2197   -0.3910 C   0  0  0  0  0  0  0  0  0  0  0  0
    5.5505    0.5428   -1.4184 H   0  0  0  0  0  0  0  0  0  0  0  0
    6.3542   -0.0191    0.5220 C   0  0  0  0  0  0  0  0  0  0  0  0
    7.4007    0.1207    0.2106 H   0  0  0  0  0  0  0  0  0  0  0  0
    6.0561   -0.4422    1.8265 C   0  0  0  0  0  0  0  0  0  0  0  0
    6.8687   -0.6344    2.5437 H   0  0  0  0  0  0  0  0  0  0  0  0
    4.7164   -0.6166    2.2128 C   0  0  0  0  0  0  0  0  0  0  0  0
    4.4745   -0.9376    3.2375 H   0  0  0  0  0  0  0  0  0  0  0  0
    3.6771   -0.3742    1.3036 C   0  0  0  0  0  0  0  0  0  0  0  0
    2.6252   -0.4888    1.6161 H   0  0  0  0  0  0  0  0  0  0  0  0
  1 15  1  0  0  0  0
  2  1  1  0  0  0  0
  2  4  1  0  0  0  0
  3 29  1  0  0  0  0
  3  4  1  0  0  0  0
  5  2  1  0  0  0  0
  6  5  2  0  0  0  0
  6  3  1  0  0  0  0
  7  5  1  0  0  0  0
  7 10  1  0  0  0  0
  8  7  1  0  0  0  0
  9  7  1  0  0  0  0
 11  6  1  0  0  0  0
 11 13  1  0  0  0  0
 12 11  1  0  0  0  0
 14 11  1  0  0  0  0
 15 17  1  0  0  0  0
 15 18  1  0  0  0  0
 15 16  1  0  0  0  0
 18 27  1  0  0  0  0
 19 21  1  0  0  0  0
 19 18  2  0  0  0  0
 20 19  1  0  0  0  0
 21 23  2  0  0  0  0
 22 21  1  0  0  0  0
 23 24  1  0  0  0  0
 23 25  1  0  0  0  0
 25 26  1  0  0  0  0
 27 25  2  0  0  0  0
 27 28  1  0  0  0  0
 29 30  1  0  0  0  0
 29 32  1  0  0  0  0
 31 29  1  0  0  0  0
 32 41  1  0  0  0  0
 33 32  2  0  0  0  0
 33 35  1  0  0  0  0
 34 33  1  0  0  0  0
 35 37  2  0  0  0  0
 36 35  1  0  0  0  0
 37 39  1  0  0  0  0
 37 38  1  0  0  0  0
 39 40  1  0  0  0  0
 41 42  1  0  0  0  0
 41 39  2  0  0  0  0
M  END
