2
 OpenBabel05122313113D

 33 33  0  0  1  0  0  0  0  0999 V2000
    1.0665    1.0476    0.3088 C   0  0  2  0  0  3  0  0  0  0  0  0
    1.3746   -0.0119    1.2848 C   0  0  1  0  0  3  0  0  0  0  0  0
    1.7695   -0.1921   -0.0821 C   0  0  2  0  0  3  0  0  0  0  0  0
    1.3258    2.5455    0.2773 C   0  0  0  0  0  0  0  0  0  0  0  0
    1.3156    3.0825   -1.1684 C   0  0  0  0  0  0  0  0  0  0  0  0
    0.2475    3.2751    1.1026 C   0  0  0  0  0  0  0  0  0  0  0  0
    2.6995    2.8545    0.9144 C   0  0  0  0  0  0  0  0  0  0  0  0
    1.8855   -0.1880    2.6694 C   0  0  0  0  0  0  0  0  0  0  0  0
    3.0235   -0.6389   -0.8328 C   0  0  0  0  0  0  0  0  0  0  0  0
    3.3625    0.3293   -1.9830 C   0  0  0  0  0  0  0  0  0  0  0  0
    2.8713   -2.0468   -1.4391 C   0  0  0  0  0  0  0  0  0  0  0  0
    4.1960   -0.6689    0.1739 C   0  0  0  0  0  0  0  0  0  0  0  0
    1.3101    4.1924   -1.1671 H   0  0  0  0  0  0  0  0  0  0  0  0
    0.4498    4.3662    1.1180 H   0  0  0  0  0  0  0  0  0  0  0  0
    2.9054    3.9440    0.8678 H   0  0  0  0  0  0  0  0  0  0  0  0
    2.8277    0.3781    2.8244 H   0  0  0  0  0  0  0  0  0  0  0  0
    4.2275   -0.0565   -2.5616 H   0  0  0  0  0  0  0  0  0  0  0  0
    3.8151   -2.3389   -1.9437 H   0  0  0  0  0  0  0  0  0  0  0  0
    5.1379   -0.9456   -0.3438 H   0  0  0  0  0  0  0  0  0  0  0  0
    0.4322    2.7231   -1.7221 H   0  0  0  0  0  0  0  0  0  0  0  0
    2.2055    2.7490   -1.7317 H   0  0  0  0  0  0  0  0  0  0  0  0
    0.2123    2.8981    2.1422 H   0  0  0  0  0  0  0  0  0  0  0  0
   -0.7598    3.1131    0.6750 H   0  0  0  0  0  0  0  0  0  0  0  0
    3.5213    2.3357    0.3824 H   0  0  0  0  0  0  0  0  0  0  0  0
    2.7285    2.5509    1.9794 H   0  0  0  0  0  0  0  0  0  0  0  0
    2.1047   -1.2556    2.8852 H   0  0  0  0  0  0  0  0  0  0  0  0
    1.1364    0.1693    3.4027 H   0  0  0  0  0  0  0  0  0  0  0  0
    3.6388    1.3297   -1.5985 H   0  0  0  0  0  0  0  0  0  0  0  0
    2.4971    0.4406   -2.6631 H   0  0  0  0  0  0  0  0  0  0  0  0
    2.0600   -2.0553   -2.1916 H   0  0  0  0  0  0  0  0  0  0  0  0
    2.6617   -2.8107   -0.6650 H   0  0  0  0  0  0  0  0  0  0  0  0
    4.0181   -1.4100    0.9788 H   0  0  0  0  0  0  0  0  0  0  0  0
    4.3490    0.3194    0.6509 H   0  0  0  0  0  0  0  0  0  0  0  0
  1  4  1  1  0  0  0
  1  2  1  0  0  0  0
  2  8  1  1  0  0  0
  3  9  1  1  0  0  0
  3  1  1  0  0  0  0
  3  2  1  0  0  0  0
  4  7  1  0  0  0  0
  4  6  1  0  0  0  0
  5 13  1  0  0  0  0
  5  4  1  0  0  0  0
  6 14  1  0  0  0  0
  6 22  1  0  0  0  0
  7 25  1  0  0  0  0
  8 16  1  0  0  0  0
  8 26  1  0  0  0  0
  8 27  1  0  0  0  0
  9 12  1  0  0  0  0
 10 28  1  0  0  0  0
 10  9  1  0  0  0  0
 11  9  1  0  0  0  0
 11 31  1  0  0  0  0
 12 33  1  0  0  0  0
 12 32  1  0  0  0  0
 15  7  1  0  0  0  0
 17 10  1  0  0  0  0
 18 11  1  0  0  0  0
 19 12  1  0  0  0  0
 20  5  1  0  0  0  0
 21  5  1  0  0  0  0
 23  6  1  0  0  0  0
 24  7  1  0  0  0  0
 29 10  1  0  0  0  0
 30 11  1  0  0  0  0
M  END
