5
 OpenBabel05122313113D

 48 49  0  0  0  0  0  0  0  0999 V2000
   -2.4744   -1.5484   -0.3620 N   0  0  0  0  0  0  0  0  0  0  0  0
   -0.6192   -2.6293   -0.6284 N   0  0  0  0  0  0  0  0  0  0  0  0
    3.0096   -2.0705   -0.3502 N   0  0  0  0  0  0  0  0  0  0  0  0
    2.8785   -1.2509   -0.9646 H   0  0  0  0  0  0  0  0  0  0  0  0
   -1.1091   -1.3846   -0.3297 C   0  0  0  0  0  2  0  0  0  0  0  0
   -2.8226   -2.8601   -0.6779 C   0  0  0  0  0  0  0  0  0  0  0  0
   -3.8643   -3.1816   -0.7609 H   0  0  0  0  0  0  0  0  0  0  0  0
   -1.6449   -3.5389   -0.8448 C   0  0  0  0  0  0  0  0  0  0  0  0
   -1.4505   -4.5829   -1.1082 H   0  0  0  0  0  0  0  0  0  0  0  0
   -3.4135   -0.4915   -0.1215 C   0  0  0  0  0  0  0  0  0  0  0  0
   -3.5712    0.5172   -1.1011 C   0  0  0  0  0  0  0  0  0  0  0  0
   -4.4534    1.5713   -0.8085 C   0  0  0  0  0  0  0  0  0  0  0  0
   -4.5838    2.3698   -1.5568 H   0  0  0  0  0  0  0  0  0  0  0  0
   -5.1752    1.6337    0.3997 C   0  0  0  0  0  0  0  0  0  0  0  0
   -5.0032    0.5964    1.3329 C   0  0  0  0  0  0  0  0  0  0  0  0
   -5.5568    0.6291    2.2850 H   0  0  0  0  0  0  0  0  0  0  0  0
   -4.1274   -0.4791    1.0958 C   0  0  0  0  0  0  0  0  0  0  0  0
   -2.8185    0.4673   -2.4031 C   0  0  0  0  0  0  0  0  0  0  0  0
   -3.1963    1.2316   -3.1080 H   0  0  0  0  0  0  0  0  0  0  0  0
   -2.9088   -0.5285   -2.8833 H   0  0  0  0  0  0  0  0  0  0  0  0
   -1.7283    0.6314   -2.2558 H   0  0  0  0  0  0  0  0  0  0  0  0
   -6.1157    2.7812    0.6699 C   0  0  0  0  0  0  0  0  0  0  0  0
   -5.6066    3.7584    0.5419 H   0  0  0  0  0  0  0  0  0  0  0  0
   -6.5269    2.7413    1.6969 H   0  0  0  0  0  0  0  0  0  0  0  0
   -6.9718    2.7718   -0.0374 H   0  0  0  0  0  0  0  0  0  0  0  0
   -3.9398   -1.5671    2.1218 C   0  0  0  0  0  0  0  0  0  0  0  0
   -4.4654   -2.5014    1.8316 H   0  0  0  0  0  0  0  0  0  0  0  0
   -4.3361   -1.2556    3.1068 H   0  0  0  0  0  0  0  0  0  0  0  0
   -2.8703   -1.8328    2.2401 H   0  0  0  0  0  0  0  0  0  0  0  0
    0.7995   -2.9031   -0.8758 C   0  0  0  0  0  0  0  0  0  0  0  0
    1.0699   -2.3905   -1.8204 H   0  0  0  0  0  0  0  0  0  0  0  0
    0.9185   -3.9940   -1.0189 H   0  0  0  0  0  0  0  0  0  0  0  0
    1.7195   -2.3723    0.2320 C   0  0  0  0  0  0  0  0  0  0  0  0
    1.2040   -1.4823    0.6940 H   0  0  0  0  0  0  0  0  0  0  0  0
    1.8263   -3.1269    1.0403 H   0  0  0  0  0  0  0  0  0  0  0  0
    4.1362   -1.8240    0.5715 C   0  0  0  0  0  0  0  0  0  0  0  0
    3.7644   -0.8830    1.7382 C   0  0  0  0  0  0  0  0  0  0  0  0
    3.3657    0.0731    1.3461 H   0  0  0  0  0  0  0  0  0  0  0  0
    4.6504   -0.6497    2.3636 H   0  0  0  0  0  0  0  0  0  0  0  0
    2.9988   -1.3354    2.4016 H   0  0  0  0  0  0  0  0  0  0  0  0
    4.6324   -3.1736    1.1210 C   0  0  0  0  0  0  0  0  0  0  0  0
    3.8475   -3.6826    1.7178 H   0  0  0  0  0  0  0  0  0  0  0  0
    5.5109   -3.0336    1.7830 H   0  0  0  0  0  0  0  0  0  0  0  0
    4.9158   -3.8446    0.2861 H   0  0  0  0  0  0  0  0  0  0  0  0
    5.2442   -1.1705   -0.2695 C   0  0  0  0  0  0  0  0  0  0  0  0
    5.4889   -1.8081   -1.1426 H   0  0  0  0  0  0  0  0  0  0  0  0
    6.1639   -1.0216    0.3302 H   0  0  0  0  0  0  0  0  0  0  0  0
    4.9173   -0.1774   -0.6435 H   0  0  0  0  0  0  0  0  0  0  0  0
  1  5  1  0  0  0  0
  1 10  1  0  0  0  0
  2  5  1  0  0  0  0
  3 33  1  0  0  0  0
  3 36  1  0  0  0  0
  4  3  1  0  0  0  0
  6  1  1  0  0  0  0
  7  6  1  0  0  0  0
  8  6  2  0  0  0  0
  8  2  1  0  0  0  0
  9  8  1  0  0  0  0
 10 17  1  0  0  0  0
 11 12  1  0  0  0  0
 11 10  2  0  0  0  0
 12 14  2  0  0  0  0
 13 12  1  0  0  0  0
 14 22  1  0  0  0  0
 14 15  1  0  0  0  0
 15 16  1  0  0  0  0
 17 15  2  0  0  0  0
 17 26  1  0  0  0  0
 18 21  1  0  0  0  0
 18 11  1  0  0  0  0
 19 18  1  0  0  0  0
 20 18  1  0  0  0  0
 22 24  1  0  0  0  0
 23 22  1  0  0  0  0
 25 22  1  0  0  0  0
 26 29  1  0  0  0  0
 26 28  1  0  0  0  0
 27 26  1  0  0  0  0
 30  2  1  0  0  0  0
 30 33  1  0  0  0  0
 31 30  1  0  0  0  0
 32 30  1  0  0  0  0
 33 34  1  0  0  0  0
 33 35  1  0  0  0  0
 36 41  1  0  0  0  0
 36 37  1  0  0  0  0
 37 39  1  0  0  0  0
 37 40  1  0  0  0  0
 38 37  1  0  0  0  0
 41 42  1  0  0  0  0
 41 43  1  0  0  0  0
 44 41  1  0  0  0  0
 45 47  1  0  0  0  0
 45 36  1  0  0  0  0
 46 45  1  0  0  0  0
 48 45  1  0  0  0  0
M  END
