3
 OpenBabel05122313113D

  8  7  0  0  0  0  0  0  0  0999 V2000
   -3.6517    3.4059    0.3602 N   0  0  0  0  0  0  0  0  0  0  0  0
    2.1213    2.7669   -1.2080 N   0  0  0  0  0  0  0  0  0  0  0  0
   -1.3984    2.5405   -0.6300 C   0  0  0  0  0  3  0  0  0  0  0  0
   -0.1411    2.7254    0.0799 C   0  0  0  0  0  3  0  0  0  0  0  0
   -2.6246    3.0389   -0.0834 C   0  0  0  0  0  0  0  0  0  0  0  0
    1.0891    2.7871   -0.6386 C   0  0  0  0  0  0  0  0  0  0  0  0
   -1.3808    2.4712   -1.7323 H   0  0  0  0  0  0  0  0  0  0  0  0
   -0.1433    3.2492    1.0517 H   0  0  0  0  0  0  0  0  0  0  0  0
  2  6  3  0  0  0  0
  3  5  1  0  0  0  0
  3  4  1  0  0  0  0
  4  8  1  0  0  0  0
  5  1  3  0  0  0  0
  6  4  1  0  0  0  0
  7  3  1  0  0  0  0
M  END
