8
 OpenBabel05122313113D

 23 23  0  0  0  0  0  0  0  0999 V2000
   -1.7950    4.4074   -1.7084 N   0  0  0  0  0  0  0  0  0  0  0  0
   -1.0806    4.1215   -0.8192 C   0  0  0  0  0  0  0  0  0  0  0  0
    1.1291    5.5338    1.5448 N   0  0  0  0  0  0  0  0  0  0  0  0
    0.5276    4.7240    0.9402 C   0  0  0  0  0  0  0  0  0  0  0  0
   -0.1850    3.7160    0.2196 C   0  0  0  0  0  0  0  0  0  0  0  0
    0.0667    2.3652    0.4524 C   0  0  0  0  0  0  0  0  0  0  0  0
    0.8014    2.1305    1.2433 H   0  0  0  0  0  0  0  0  0  0  0  0
   -0.5087    1.2714   -0.2795 C   0  0  0  0  0  2  0  0  0  0  0  0
   -1.8232    0.8231   -0.2767 C   0  0  0  0  0  0  0  0  0  0  0  0
   -2.8116    1.3867    0.6218 C   0  0  0  0  0  0  0  0  0  0  0  0
   -2.5206    2.2396    1.2523 H   0  0  0  0  0  0  0  0  0  0  0  0
   -4.0777    0.8677    0.7091 C   0  0  0  0  0  0  0  0  0  0  0  0
   -4.8111    1.3059    1.4026 H   0  0  0  0  0  0  0  0  0  0  0  0
   -4.4788   -0.2633   -0.0941 C   0  0  0  0  0  0  0  0  0  0  0  0
   -3.5071   -0.8146   -1.0093 C   0  0  0  0  0  0  0  0  0  0  0  0
   -3.8008   -1.6708   -1.6347 H   0  0  0  0  0  0  0  0  0  0  0  0
   -2.2426   -0.2934   -1.0942 C   0  0  0  0  0  0  0  0  0  0  0  0
   -1.5043   -0.7270   -1.7829 H   0  0  0  0  0  0  0  0  0  0  0  0
   -5.7716   -0.8227    0.0188 C   0  0  0  0  0  3  0  0  0  0  0  0
   -6.7300   -0.2955    0.9326 C   0  0  0  0  0  0  0  0  0  0  0  0
   -7.5040    0.1516    1.6986 N   0  0  0  0  0  0  0  0  0  0  0  0
   -6.1578   -1.9481   -0.7664 C   0  0  0  0  0  0  0  0  0  0  0  0
   -6.4484   -2.8808   -1.4233 N   0  0  0  0  0  0  0  0  0  0  0  0
  1  2  3  0  0  0  0
  2  5  1  0  0  0  0
  4  3  3  0  0  0  0
  5  6  2  0  0  0  0
  5  4  1  0  0  0  0
  6  7  1  0  0  0  0
  8  9  1  0  0  0  0
  8  6  1  0  0  0  0
  9 10  1  0  0  0  0
 10 12  2  0  0  0  0
 10 11  1  0  0  0  0
 12 13  1  0  0  0  0
 14 19  1  0  0  0  0
 14 12  1  0  0  0  0
 15 14  2  0  0  0  0
 16 15  1  0  0  0  0
 17 15  1  0  0  0  0
 17  9  2  0  0  0  0
 18 17  1  0  0  0  0
 19 20  1  0  0  0  0
 20 21  3  0  0  0  0
 22 19  1  0  0  0  0
 23 22  3  0  0  0  0
M  END
