1
 OpenBabel05122313113D

 19 19  0  0  0  0  0  0  0  0999 V2000
    1.1340    1.5370   -0.2931 C   0  0  0  0  0  3  0  0  0  0  0  0
    0.9327    2.7818    0.3353 C   0  0  0  0  0  0  0  0  0  0  0  0
    1.8115    3.8736    0.1570 C   0  0  0  0  0  0  0  0  0  0  0  0
    2.9104    3.7181   -0.7031 C   0  0  0  0  0  0  0  0  0  0  0  0
    3.1255    2.5133   -1.3892 C   0  0  0  0  0  0  0  0  0  0  0  0
    2.2223    1.4472   -1.1856 C   0  0  0  0  0  0  0  0  0  0  0  0
   -0.4006    4.0125    1.9086 C   0  0  0  0  0  0  0  0  0  0  0  0
    3.4518    0.0027   -2.6519 C   0  0  0  0  0  0  0  0  0  0  0  0
   -0.1935    2.8492    1.1396 O   0  0  0  0  0  0  0  0  0  0  0  0
    2.3145    0.2446   -1.8525 O   0  0  0  0  0  0  0  0  0  0  0  0
    1.6517    4.8335    0.6667 H   0  0  0  0  0  0  0  0  0  0  0  0
    3.6076    4.5575   -0.8483 H   0  0  0  0  0  0  0  0  0  0  0  0
    3.9830    2.4190   -2.0691 H   0  0  0  0  0  0  0  0  0  0  0  0
   -1.3238    3.8416    2.4954 H   0  0  0  0  0  0  0  0  0  0  0  0
   -0.5408    4.9209    1.2780 H   0  0  0  0  0  0  0  0  0  0  0  0
    0.4424    4.2057    2.6121 H   0  0  0  0  0  0  0  0  0  0  0  0
    3.5084    0.6937   -3.5250 H   0  0  0  0  0  0  0  0  0  0  0  0
    3.3582   -1.0358   -3.0227 H   0  0  0  0  0  0  0  0  0  0  0  0
    4.3943    0.0855   -2.0666 H   0  0  0  0  0  0  0  0  0  0  0  0
  1  2  1  0  0  0  0
  2  9  1  0  0  0  0
  3  2  2  0  0  0  0
  3 11  1  0  0  0  0
  4  3  1  0  0  0  0
  5  6  1  0  0  0  0
  5  4  2  0  0  0  0
  6  1  2  0  0  0  0
  7 14  1  0  0  0  0
  7 16  1  0  0  0  0
  8 19  1  0  0  0  0
  8 10  1  0  0  0  0
  9  7  1  0  0  0  0
 10  6  1  0  0  0  0
 12  4  1  0  0  0  0
 13  5  1  0  0  0  0
 15  7  1  0  0  0  0
 17  8  1  0  0  0  0
 18  8  1  0  0  0  0
M  END
