3
 OpenBabel05122313113D

 57 63  0  0  1  0  0  0  0  0999 V2000
   -1.0777   -1.4923    0.0141 N   0  0  0  0  0  0  0  0  0  0  0  0
    1.0777   -1.4923   -0.0145 N   0  0  0  0  0  0  0  0  0  0  0  0
   -0.0000   -0.6478   -0.0001 C   0  0  0  0  0  2  0  0  0  0  0  0
    0.6848   -2.8270   -0.0087 C   0  0  0  0  0  0  0  0  0  0  0  0
   -0.6849   -2.8270    0.0084 C   0  0  0  0  0  0  0  0  0  0  0  0
   -2.4825   -1.0062    0.0127 C   0  0  2  0  0  0  0  0  0  0  0  0
   -2.7173   -0.1008    1.2423 C   0  0  0  0  0  0  0  0  0  0  0  0
   -4.1555    0.4449    1.2307 C   0  0  2  0  0  0  0  0  0  0  0  0
   -5.1450   -0.7330    1.2950 C   0  0  0  0  0  0  0  0  0  0  0  0
   -4.9254   -1.6468    0.0744 C   0  0  2  0  0  0  0  0  0  0  0  0
   -3.4780   -2.1826    0.0782 C   0  0  0  0  0  0  0  0  0  0  0  0
   -2.7482   -0.2108   -1.2850 C   0  0  0  0  0  0  0  0  0  0  0  0
   -4.1879    0.3320   -1.2862 C   0  0  2  0  0  0  0  0  0  0  0  0
   -4.3869    1.2493   -0.0636 C   0  0  0  0  0  0  0  0  0  0  0  0
   -5.1771   -0.8465   -1.2175 C   0  0  0  0  0  0  0  0  0  0  0  0
    2.4824   -1.0062   -0.0128 C   0  0  1  0  0  0  0  0  0  0  0  0
    2.7480   -0.2110    1.2851 C   0  0  0  0  0  0  0  0  0  0  0  0
    4.1877    0.3318    1.2865 C   0  0  1  0  0  0  0  0  0  0  0  0
    5.1768   -0.8467    1.2178 C   0  0  0  0  0  0  0  0  0  0  0  0
    4.9254   -1.6469   -0.0743 C   0  0  1  0  0  0  0  0  0  0  0  0
    3.4779   -2.1826   -0.0783 C   0  0  0  0  0  0  0  0  0  0  0  0
    2.7174   -0.1007   -1.2422 C   0  0  0  0  0  0  0  0  0  0  0  0
    4.1557    0.4450   -1.2304 C   0  0  1  0  0  0  0  0  0  0  0  0
    4.3869    1.2492    0.0640 C   0  0  0  0  0  0  0  0  0  0  0  0
    5.1451   -0.7329   -1.2947 C   0  0  0  0  0  0  0  0  0  0  0  0
    1.3815   -3.6675   -0.0170 H   0  0  0  0  0  0  0  0  0  0  0  0
   -1.3816   -3.6675    0.0165 H   0  0  0  0  0  0  0  0  0  0  0  0
   -1.9845    0.7318    1.2410 H   0  0  0  0  0  0  0  0  0  0  0  0
   -2.5232   -0.6875    2.1656 H   0  0  0  0  0  0  0  0  0  0  0  0
   -4.2962    1.1049    2.1123 H   0  0  0  0  0  0  0  0  0  0  0  0
   -6.1911   -0.3594    1.3049 H   0  0  0  0  0  0  0  0  0  0  0  0
   -4.9966   -1.3059    2.2356 H   0  0  0  0  0  0  0  0  0  0  0  0
   -5.6213   -2.5109    0.1223 H   0  0  0  0  0  0  0  0  0  0  0  0
   -3.3002   -2.7796    0.9982 H   0  0  0  0  0  0  0  0  0  0  0  0
   -3.3296   -2.8548   -0.7937 H   0  0  0  0  0  0  0  0  0  0  0  0
   -2.5766   -0.8775   -2.1573 H   0  0  0  0  0  0  0  0  0  0  0  0
   -2.0160    0.6175   -1.3684 H   0  0  0  0  0  0  0  0  0  0  0  0
   -4.3534    0.9104   -2.2192 H   0  0  0  0  0  0  0  0  0  0  0  0
   -3.6792    2.1046   -0.1116 H   0  0  0  0  0  0  0  0  0  0  0  0
   -5.4125    1.6763   -0.0690 H   0  0  0  0  0  0  0  0  0  0  0  0
   -6.2236   -0.4743   -1.2345 H   0  0  0  0  0  0  0  0  0  0  0  0
   -5.0522   -1.5023   -2.1059 H   0  0  0  0  0  0  0  0  0  0  0  0
    2.5762   -0.8778    2.1572 H   0  0  0  0  0  0  0  0  0  0  0  0
    2.0157    0.6173    1.3685 H   0  0  0  0  0  0  0  0  0  0  0  0
    4.3530    0.9101    2.2197 H   0  0  0  0  0  0  0  0  0  0  0  0
    5.0518   -1.5027    2.1061 H   0  0  0  0  0  0  0  0  0  0  0  0
    6.2234   -0.4745    1.2349 H   0  0  0  0  0  0  0  0  0  0  0  0
    5.6212   -2.5110   -0.1221 H   0  0  0  0  0  0  0  0  0  0  0  0
    3.3002   -2.7795   -0.9984 H   0  0  0  0  0  0  0  0  0  0  0  0
    3.3294   -2.8549    0.7935 H   0  0  0  0  0  0  0  0  0  0  0  0
    1.9846    0.7319   -1.2410 H   0  0  0  0  0  0  0  0  0  0  0  0
    2.5234   -0.6873   -2.1657 H   0  0  0  0  0  0  0  0  0  0  0  0
    4.2964    1.1051   -2.1118 H   0  0  0  0  0  0  0  0  0  0  0  0
    5.4124    1.6762    0.0697 H   0  0  0  0  0  0  0  0  0  0  0  0
    3.6791    2.1045    0.1121 H   0  0  0  0  0  0  0  0  0  0  0  0
    4.9968   -1.3057   -2.2354 H   0  0  0  0  0  0  0  0  0  0  0  0
    6.1913   -0.3594   -1.3044 H   0  0  0  0  0  0  0  0  0  0  0  0
  2  4  1  0  0  0  0
  2  3  1  0  0  0  0
  3  1  1  0  0  0  0
  4  5  2  0  0  0  0
  5  1  1  0  0  0  0
  5 27  1  0  0  0  0
  6  1  1  1  0  0  0
  6 11  1  0  0  0  0
  6  7  1  0  0  0  0
  7 29  1  0  0  0  0
  8  7  1  0  0  0  0
  8  9  1  0  0  0  0
  8 30  1  1  0  0  0
  9 31  1  0  0  0  0
  9 32  1  0  0  0  0
 10 11  1  0  0  0  0
 10 33  1  1  0  0  0
 10  9  1  0  0  0  0
 11 34  1  0  0  0  0
 12  6  1  0  0  0  0
 13 38  1  6  0  0  0
 13 12  1  0  0  0  0
 13 15  1  0  0  0  0
 13 14  1  0  0  0  0
 14  8  1  0  0  0  0
 15 10  1  0  0  0  0
 16  2  1  6  0  0  0
 16 17  1  0  0  0  0
 17 18  1  0  0  0  0
 17 44  1  0  0  0  0
 17 43  1  0  0  0  0
 18 45  1  1  0  0  0
 19 47  1  0  0  0  0
 19 18  1  0  0  0  0
 19 46  1  0  0  0  0
 20 48  1  6  0  0  0
 20 19  1  0  0  0  0
 21 20  1  0  0  0  0
 21 16  1  0  0  0  0
 21 50  1  0  0  0  0
 22 51  1  0  0  0  0
 22 23  1  0  0  0  0
 22 16  1  0  0  0  0
 23 53  1  6  0  0  0
 23 24  1  0  0  0  0
 24 54  1  0  0  0  0
 24 55  1  0  0  0  0
 24 18  1  0  0  0  0
 25 23  1  0  0  0  0
 25 20  1  0  0  0  0
 26  4  1  0  0  0  0
 28  7  1  0  0  0  0
 35 11  1  0  0  0  0
 36 12  1  0  0  0  0
 37 12  1  0  0  0  0
 39 14  1  0  0  0  0
 40 14  1  0  0  0  0
 41 15  1  0  0  0  0
 42 15  1  0  0  0  0
 49 21  1  0  0  0  0
 52 22  1  0  0  0  0
 56 25  1  0  0  0  0
 57 25  1  0  0  0  0
M  END
