20
 OpenBabel05122313113D

 49 52  0  0  1  0  0  0  0  0999 V2000
   -0.8478    3.0269   -0.7561 C   0  0  0  0  0  3  0  0  0  0  0  0
   -1.4017    3.5226   -1.5707 H   0  0  0  0  0  0  0  0  0  0  0  0
    4.4968   -0.9510    0.9399 C   0  0  0  0  0  0  0  0  0  0  0  0
    4.9018   -1.5396    1.7771 H   0  0  0  0  0  0  0  0  0  0  0  0
    0.7477    4.8527   -0.7464 C   0  0  0  0  0  0  0  0  0  0  0  0
   -0.0569    5.4646   -1.1834 H   0  0  0  0  0  0  0  0  0  0  0  0
    3.4553    0.5506   -1.1876 C   0  0  0  0  0  0  0  0  0  0  0  0
    3.0429    1.1403   -2.0206 H   0  0  0  0  0  0  0  0  0  0  0  0
    3.2574   -0.3105    1.0755 C   0  0  0  0  0  0  0  0  0  0  0  0
    2.6862   -0.3943    2.0118 H   0  0  0  0  0  0  0  0  0  0  0  0
   -3.9838    2.0660   -0.1277 C   0  0  0  0  0  0  0  0  0  0  0  0
   -4.0709    3.1315   -0.4376 H   0  0  0  0  0  0  0  0  0  0  0  0
   -3.8917    2.0647    0.9761 H   0  0  0  0  0  0  0  0  0  0  0  0
    1.4188    1.1657    0.1912 C   0  0  1  0  0  3  0  0  0  0  0  0
    2.7183    0.4458    0.0119 C   0  0  0  0  0  0  0  0  0  0  0  0
    5.2129   -0.8527   -0.2636 C   0  0  0  0  0  0  0  0  0  0  0  0
    6.1798   -1.3661   -0.3748 H   0  0  0  0  0  0  0  0  0  0  0  0
   -1.4696    2.0196   -0.1672 N   0  0  0  0  0  0  0  0  0  0  0  0
    0.4651    3.4884   -0.4273 C   0  0  0  0  0  0  0  0  0  0  0  0
    0.2409    0.4568    0.4456 C   0  0  0  0  0  2  0  0  0  0  0  0
   -2.7093    1.4701   -0.7343 C   0  0  0  0  0  0  0  0  0  0  0  0
   -2.6677    0.3772   -0.5646 H   0  0  0  0  0  0  0  0  0  0  0  0
   -2.6700    1.6167   -1.8300 H   0  0  0  0  0  0  0  0  0  0  0  0
    1.5204    2.6277    0.0823 C   0  0  0  0  0  0  0  0  0  0  0  0
   -1.2664    0.6964    3.4407 C   0  0  0  0  0  0  0  0  0  0  0  0
   -1.5387   -0.2082    4.0033 H   0  0  0  0  0  0  0  0  0  0  0  0
   -0.2419    1.0520    3.6336 H   0  0  0  0  0  0  0  0  0  0  0  0
   -1.7934    0.8261    2.0310 C   0  0  0  0  0  0  0  0  0  0  0  0
   -2.4421    0.0086    1.6931 H   0  0  0  0  0  0  0  0  0  0  0  0
    2.7802    3.2581    0.3183 C   0  0  0  0  0  0  0  0  0  0  0  0
    3.5954    2.6388    0.7169 H   0  0  0  0  0  0  0  0  0  0  0  0
   -5.2386    1.2839   -0.5412 C   0  0  0  0  0  0  0  0  0  0  0  0
   -5.1471    0.2417   -0.1641 H   0  0  0  0  0  0  0  0  0  0  0  0
   -6.1095    1.7256   -0.0124 H   0  0  0  0  0  0  0  0  0  0  0  0
   -5.5111    1.2642   -2.0474 C   0  0  0  0  0  0  0  0  0  0  0  0
   -5.5769    2.2927   -2.4618 H   0  0  0  0  0  0  0  0  0  0  0  0
   -6.4680    0.7532   -2.2729 H   0  0  0  0  0  0  0  0  0  0  0  0
   -4.7204    0.7259   -2.6095 H   0  0  0  0  0  0  0  0  0  0  0  0
    1.9849    5.4174   -0.4835 C   0  0  0  0  0  0  0  0  0  0  0  0
    2.1724    6.4778   -0.7062 H   0  0  0  0  0  0  0  0  0  0  0  0
    3.0030    4.6082    0.0771 C   0  0  0  0  0  0  0  0  0  0  0  0
    3.9849    5.0462    0.3121 H   0  0  0  0  0  0  0  0  0  0  0  0
   -0.8341    1.3962    1.0168 C   0  0  2  0  0  0  0  0  0  0  0  0
   -0.3288    2.2460    1.5267 H   0  0  0  0  0  0  0  0  0  0  0  0
   -2.3298    1.7201    3.1312 C   0  0  0  0  0  0  0  0  0  0  0  0
   -2.0384    2.7829    3.1205 H   0  0  0  0  0  0  0  0  0  0  0  0
   -3.3550    1.5366    3.4880 H   0  0  0  0  0  0  0  0  0  0  0  0
    4.6870   -0.1027   -1.3279 C   0  0  0  0  0  0  0  0  0  0  0  0
    5.2391   -0.0312   -2.2774 H   0  0  0  0  0  0  0  0  0  0  0  0
  1 19  1  0  0  0  0
  1 18  1  0  0  0  0
  2  1  1  0  0  0  0
  3  9  1  0  0  0  0
  3  4  1  0  0  0  0
  5 39  2  0  0  0  0
  5 19  1  0  0  0  0
  6  5  1  0  0  0  0
  7 15  1  0  0  0  0
  8  7  1  0  0  0  0
  9 10  1  0  0  0  0
 11 13  1  0  0  0  0
 12 11  1  0  0  0  0
 14 15  1  1  0  0  0
 14 20  1  0  0  0  0
 15  9  2  0  0  0  0
 16  3  2  0  0  0  0
 17 16  1  0  0  0  0
 18 43  1  0  0  0  0
 19 24  2  0  0  0  0
 20 43  1  0  0  0  0
 21 22  1  0  0  0  0
 21 18  1  0  0  0  0
 21 11  1  0  0  0  0
 23 21  1  0  0  0  0
 24 14  1  0  0  0  0
 24 30  1  0  0  0  0
 25 27  1  0  0  0  0
 25 26  1  0  0  0  0
 28 45  1  0  0  0  0
 28 25  1  0  0  0  0
 29 28  1  0  0  0  0
 30 31  1  0  0  0  0
 32 33  1  0  0  0  0
 32 11  1  0  0  0  0
 32 34  1  0  0  0  0
 35 32  1  0  0  0  0
 36 35  1  0  0  0  0
 37 35  1  0  0  0  0
 38 35  1  0  0  0  0
 39 41  1  0  0  0  0
 40 39  1  0  0  0  0
 41 42  1  0  0  0  0
 41 30  2  0  0  0  0
 43 44  1  1  0  0  0
 43 28  1  0  0  0  0
 45 25  1  0  0  0  0
 45 47  1  0  0  0  0
 46 45  1  0  0  0  0
 48  7  2  0  0  0  0
 48 16  1  0  0  0  0
 49 48  1  0  0  0  0
M  END
