2
 OpenBabel05122313113D

  8  8  0  0  0  0  0  0  0  0999 V2000
    2.9568    0.0000    1.2627 S   0  0  0  0  0  0  0  0  0  0  0  0
    2.0075    0.0001   -0.2091 C   0  0  0  0  0  3  0  0  0  0  0  0
    2.8602   -0.0000   -1.3057 C   0  0  0  0  0  0  0  0  0  0  0  0
    2.4949   -0.0000   -2.3433 H   0  0  0  0  0  0  0  0  0  0  0  0
    4.2543   -0.0001   -0.9592 C   0  0  0  0  0  0  0  0  0  0  0  0
    5.0683   -0.0001   -1.6989 H   0  0  0  0  0  0  0  0  0  0  0  0
    4.4748    0.0000    0.4027 C   0  0  0  0  0  0  0  0  0  0  0  0
    5.4294    0.0000    0.9430 H   0  0  0  0  0  0  0  0  0  0  0  0
  2  1  1  0  0  0  0
  3  5  1  0  0  0  0
  3  2  2  0  0  0  0
  4  3  1  0  0  0  0
  5  7  2  0  0  0  0
  6  5  1  0  0  0  0
  7  8  1  0  0  0  0
  7  1  1  0  0  0  0
M  END
