1
 OpenBabel05122313113D

 26 28  0  0  1  0  0  0  0  0999 V2000
    0.7072   -1.7189    0.5243 C   0  0  2  0  0  3  0  0  0  0  0  0
    0.6942   -1.5778   -0.8812 C   0  0  1  0  0  3  0  0  0  0  0  0
    1.4236   -0.2721   -1.4043 B   0  0  0  0  0  0  0  0  0  0  0  0
    1.7139    0.8223    0.0589 B   0  0  1  0  0  0  0  0  0  0  0  0
    1.4494   -0.5402    1.2814 B   0  0  2  0  0  0  0  0  0  0  0  0
    2.9034   -0.2485    0.6428 C   0  0  1  0  0  0  0  0  0  0  0  0
    2.8900   -0.1088   -0.7469 C   0  0  1  0  0  0  0  0  0  0  0  0
    0.1879   -2.9244    1.2589 C   0  0  0  0  0  0  0  0  0  0  0  0
    0.1485   -2.6119   -1.8268 C   0  0  0  0  0  0  0  0  0  0  0  0
    4.0910   -0.0441    1.5383 C   0  0  0  0  0  0  0  0  0  0  0  0
    4.0606    0.2722   -1.6063 C   0  0  0  0  0  0  0  0  0  0  0  0
    1.2928    0.1215   -2.5538 H   0  0  0  0  0  0  0  0  0  0  0  0
    1.8680    2.0227    0.1773 H   0  0  0  0  0  0  0  0  0  0  0  0
    1.3385   -0.3796    2.4884 H   0  0  0  0  0  0  0  0  0  0  0  0
   -0.1380   -2.6755    2.2881 H   0  0  0  0  0  0  0  0  0  0  0  0
   -0.6487   -3.4351    0.7374 H   0  0  0  0  0  0  0  0  0  0  0  0
    1.0045   -3.6724    1.3616 H   0  0  0  0  0  0  0  0  0  0  0  0
   -0.1156   -2.1727   -2.8093 H   0  0  0  0  0  0  0  0  0  0  0  0
    0.9273   -3.3807   -2.0255 H   0  0  0  0  0  0  0  0  0  0  0  0
   -0.7386   -3.1503   -1.4295 H   0  0  0  0  0  0  0  0  0  0  0  0
    3.7934    0.4409    2.4883 H   0  0  0  0  0  0  0  0  0  0  0  0
    4.5430   -1.0231    1.8039 H   0  0  0  0  0  0  0  0  0  0  0  0
    4.8858    0.5664    1.0597 H   0  0  0  0  0  0  0  0  0  0  0  0
    3.7449    0.9321   -2.4376 H   0  0  0  0  0  0  0  0  0  0  0  0
    4.8635    0.7810   -1.0318 H   0  0  0  0  0  0  0  0  0  0  0  0
    4.5086   -0.6338   -2.0664 H   0  0  0  0  0  0  0  0  0  0  0  0
  1  8  1  6  0  0  0
  1  5  1  0  0  0  0
  2  9  1  6  0  0  0
  2  1  1  0  0  0  0
  3  2  1  0  0  0  0
  3  7  1  0  0  0  0
  4 13  1  1  0  0  0
  4  6  1  0  0  0  0
  4  5  1  0  0  0  0
  5 14  1  1  0  0  0
  6  5  1  0  0  0  0
  6 10  1  1  0  0  0
  7 11  1  6  0  0  0
  7  4  1  0  0  0  0
  7  6  1  0  0  0  0
  8 17  1  0  0  0  0
  8 15  1  0  0  0  0
  9 20  1  0  0  0  0
 10 22  1  0  0  0  0
 10 21  1  0  0  0  0
 11 25  1  0  0  0  0
 12  3  1  0  0  0  0
 16  8  1  0  0  0  0
 18  9  1  0  0  0  0
 19  9  1  0  0  0  0
 23 10  1  0  0  0  0
 24 11  1  0  0  0  0
 26 11  1  0  0  0  0
M  END
