15
 OpenBabel05122313113D

 41 41  0  0  0  0  0  0  0  0999 V2000
    1.7254    0.9477   -0.7799 N   0  0  0  0  0  0  0  0  0  0  0  0
    2.7038    1.1370   -0.5181 H   0  0  0  0  0  0  0  0  0  0  0  0
    3.7130    0.0074    1.0287 N   0  0  0  0  0  4  0  0  0  0  0  0
    4.2390    0.7684    0.4919 H   0  0  0  0  0  0  0  0  0  0  0  0
    1.3855    0.6892    1.5896 C   0  0  0  0  0  0  0  0  0  0  0  0
    2.7026    0.2942    1.9830 C   0  0  0  0  0  0  0  0  0  0  0  0
    3.0375    0.2120    3.3485 C   0  0  0  0  0  0  0  0  0  0  0  0
    4.0600   -0.0959    3.6127 H   0  0  0  0  0  0  0  0  0  0  0  0
    2.1087    0.5398    4.3424 C   0  0  0  0  0  0  0  0  0  0  0  0
    2.3949    0.4766    5.4031 H   0  0  0  0  0  0  0  0  0  0  0  0
    0.8225    0.9601    3.9717 C   0  0  0  0  0  0  0  0  0  0  0  0
    0.0827    1.2359    4.7375 H   0  0  0  0  0  0  0  0  0  0  0  0
    0.4708    1.0185    2.6208 C   0  0  0  0  0  0  0  0  0  0  0  0
   -0.5397    1.3383    2.3269 H   0  0  0  0  0  0  0  0  0  0  0  0
    0.8769    0.6779    0.1873 C   0  0  0  0  0  2  0  0  0  0  0  0
    1.6130    0.8822   -2.2711 C   0  0  0  0  0  0  0  0  0  0  0  0
    0.1843    1.0633   -2.7783 C   0  0  0  0  0  0  0  0  0  0  0  0
   -0.4858    0.2522   -2.4234 H   0  0  0  0  0  0  0  0  0  0  0  0
    0.2042    1.0318   -3.8858 H   0  0  0  0  0  0  0  0  0  0  0  0
   -0.2480    2.0293   -2.4550 H   0  0  0  0  0  0  0  0  0  0  0  0
    2.1682   -0.4915   -2.6946 C   0  0  0  0  0  0  0  0  0  0  0  0
    3.2026   -0.6419   -2.3265 H   0  0  0  0  0  0  0  0  0  0  0  0
    2.1772   -0.5624   -3.8005 H   0  0  0  0  0  0  0  0  0  0  0  0
    1.5344   -1.3046   -2.2872 H   0  0  0  0  0  0  0  0  0  0  0  0
    2.5096    2.0198   -2.7936 C   0  0  0  0  0  0  0  0  0  0  0  0
    2.1043    3.0066   -2.4927 H   0  0  0  0  0  0  0  0  0  0  0  0
    2.5481    1.9848   -3.8996 H   0  0  0  0  0  0  0  0  0  0  0  0
    3.5461    1.9277   -2.4067 H   0  0  0  0  0  0  0  0  0  0  0  0
    3.5600   -2.4379    1.2601 C   0  0  0  0  0  0  0  0  0  0  0  0
    3.6223   -2.4097    2.3659 H   0  0  0  0  0  0  0  0  0  0  0  0
    4.0601   -3.3499    0.8895 H   0  0  0  0  0  0  0  0  0  0  0  0
    2.4771   -2.4930    1.0028 H   0  0  0  0  0  0  0  0  0  0  0  0
    4.1576   -1.2127    0.6430 C   0  0  0  0  0  0  0  0  0  0  0  0
    5.1255   -1.2714   -0.3715 C   0  0  0  0  0  3  0  0  0  0  0  0
    5.4999   -2.2557   -0.6794 H   0  0  0  0  0  0  0  0  0  0  0  0
    5.5693   -0.0983   -1.0631 C   0  0  0  0  0  0  0  0  0  0  0  0
    6.5197   -0.2401   -2.2327 C   0  0  0  0  0  0  0  0  0  0  0  0
    7.2866    0.5572   -2.1837 H   0  0  0  0  0  0  0  0  0  0  0  0
    5.9548   -0.0856   -3.1768 H   0  0  0  0  0  0  0  0  0  0  0  0
    7.0067   -1.2323   -2.2757 H   0  0  0  0  0  0  0  0  0  0  0  0
    5.1588    1.0703   -0.7706 O   0  0  0  0  0  0  0  0  0  0  0  0
  1  2  1  0  0  0  0
  1 15  1  0  0  0  0
  3  6  1  0  0  0  0
  4  3  1  0  0  0  0
  5  6  2  0  0  0  0
  5 13  1  0  0  0  0
  6  7  1  0  0  0  0
  7  8  1  0  0  0  0
  7  9  2  0  0  0  0
  9 10  1  0  0  0  0
 11  9  1  0  0  0  0
 11 12  1  0  0  0  0
 13 11  2  0  0  0  0
 14 13  1  0  0  0  0
 15  5  1  0  0  0  0
 16  1  1  0  0  0  0
 17 20  1  0  0  0  0
 17 18  1  0  0  0  0
 17 16  1  0  0  0  0
 19 17  1  0  0  0  0
 21 22  1  0  0  0  0
 21 24  1  0  0  0  0
 21 16  1  0  0  0  0
 23 21  1  0  0  0  0
 25 26  1  0  0  0  0
 25 28  1  0  0  0  0
 25 16  1  0  0  0  0
 27 25  1  0  0  0  0
 29 30  1  0  0  0  0
 31 29  1  0  0  0  0
 32 29  1  0  0  0  0
 33  3  2  0  0  0  0
 33 29  1  0  0  0  0
 34 33  1  0  0  0  0
 35 34  1  0  0  0  0
 36 41  2  0  0  0  0
 36 34  1  0  0  0  0
 37 38  1  0  0  0  0
 37 36  1  0  0  0  0
 39 37  1  0  0  0  0
 40 37  1  0  0  0  0
M  END
