2
 OpenBabel05122313113D

 64 68  0  0  0  0  0  0  0  0999 V2000
    0.1261   -0.0984   -0.1646 N   0  0  0  0  0  0  0  0  0  0  0  0
    0.8621   -0.6901   -1.1201 C   0  0  0  0  0  2  0  0  0  0  0  0
   -0.0850   -1.2185   -2.1037 C   0  0  0  0  0  0  0  0  0  0  0  0
   -1.4097   -0.9184   -1.7143 C   0  0  0  0  0  0  0  0  0  0  0  0
    0.1777   -1.9385   -3.2818 C   0  0  0  0  0  0  0  0  0  0  0  0
    1.2174   -2.1638   -3.5640 H   0  0  0  0  0  0  0  0  0  0  0  0
   -1.3921   -0.2324   -0.3595 C   0  0  0  0  0  0  0  0  0  0  0  0
   -0.9077   -2.3539   -4.0654 C   0  0  0  0  0  0  0  0  0  0  0  0
   -0.7319   -2.9142   -4.9957 H   0  0  0  0  0  0  0  0  0  0  0  0
   -2.0745    1.1333   -0.2922 C   0  0  0  0  0  0  0  0  0  0  0  0
   -2.4943   -1.3625   -2.4761 C   0  0  0  0  0  0  0  0  0  0  0  0
   -3.5295   -1.1733   -2.1547 H   0  0  0  0  0  0  0  0  0  0  0  0
   -2.2288   -2.0689   -3.6636 C   0  0  0  0  0  0  0  0  0  0  0  0
   -3.0692   -2.4117   -4.2862 H   0  0  0  0  0  0  0  0  0  0  0  0
   -2.1237    1.8335    0.9345 C   0  0  0  0  0  0  0  0  0  0  0  0
   -1.6542    1.4027    1.8296 H   0  0  0  0  0  0  0  0  0  0  0  0
   -2.7755    3.0704    1.0278 C   0  0  0  0  0  0  0  0  0  0  0  0
   -2.8020    3.5961    1.9939 H   0  0  0  0  0  0  0  0  0  0  0  0
   -3.3878    3.6356   -0.1025 C   0  0  0  0  0  0  0  0  0  0  0  0
   -3.9038    4.6046   -0.0275 H   0  0  0  0  0  0  0  0  0  0  0  0
   -3.3237    2.9614   -1.3300 C   0  0  0  0  0  0  0  0  0  0  0  0
   -3.7845    3.4003   -2.2277 H   0  0  0  0  0  0  0  0  0  0  0  0
   -2.6677    1.7235   -1.4247 C   0  0  0  0  0  0  0  0  0  0  0  0
   -2.6209    1.2114   -2.3953 H   0  0  0  0  0  0  0  0  0  0  0  0
   -1.9865   -1.2625    0.6379 C   0  0  0  0  0  0  0  0  0  0  0  0
   -1.4114   -2.5501    0.7092 C   0  0  0  0  0  0  0  0  0  0  0  0
   -0.5325   -2.7917    0.0933 H   0  0  0  0  0  0  0  0  0  0  0  0
   -1.9515   -3.5348    1.5434 C   0  0  0  0  0  0  0  0  0  0  0  0
   -1.4771   -4.5264    1.5896 H   0  0  0  0  0  0  0  0  0  0  0  0
   -3.0967   -3.2613    2.3103 C   0  0  0  0  0  0  0  0  0  0  0  0
   -3.5230   -4.0347    2.9668 H   0  0  0  0  0  0  0  0  0  0  0  0
   -3.6974   -1.9999    2.2193 C   0  0  0  0  0  0  0  0  0  0  0  0
   -4.6053   -1.7752    2.7992 H   0  0  0  0  0  0  0  0  0  0  0  0
   -3.1505   -1.0084    1.3854 C   0  0  0  0  0  0  0  0  0  0  0  0
   -3.6479   -0.0324    1.3162 H   0  0  0  0  0  0  0  0  0  0  0  0
    0.7223    0.7734    0.8208 C   0  0  0  0  0  0  0  0  0  0  0  0
    1.0285    0.2935    2.1182 C   0  0  0  0  0  0  0  0  0  0  0  0
    1.4808    1.2250    3.0731 C   0  0  0  0  0  0  0  0  0  0  0  0
    1.7202    0.8738    4.0882 H   0  0  0  0  0  0  0  0  0  0  0  0
    1.6601    2.5722    2.7458 C   0  0  0  0  0  0  0  0  0  0  0  0
    2.0083    3.2842    3.5094 H   0  0  0  0  0  0  0  0  0  0  0  0
    1.4438    3.0034    1.4319 C   0  0  0  0  0  0  0  0  0  0  0  0
    1.6462    4.0505    1.1635 H   0  0  0  0  0  0  0  0  0  0  0  0
    0.9836    2.1201    0.4397 C   0  0  0  0  0  0  0  0  0  0  0  0
    1.0144   -1.1849    2.4732 C   0  0  0  0  0  0  0  0  0  0  0  0
    0.6332   -1.7302    1.5911 H   0  0  0  0  0  0  0  0  0  0  0  0
    0.0856   -1.5012    3.6535 C   0  0  0  0  0  0  0  0  0  0  0  0
   -0.9559   -1.1823    3.4481 H   0  0  0  0  0  0  0  0  0  0  0  0
    0.4228   -0.9970    4.5829 H   0  0  0  0  0  0  0  0  0  0  0  0
    0.0704   -2.5916    3.8536 H   0  0  0  0  0  0  0  0  0  0  0  0
    2.4532   -1.6795    2.7178 C   0  0  0  0  0  0  0  0  0  0  0  0
    2.9008   -1.1981    3.6119 H   0  0  0  0  0  0  0  0  0  0  0  0
    3.1116   -1.4632    1.8507 H   0  0  0  0  0  0  0  0  0  0  0  0
    2.4573   -2.7756    2.8895 H   0  0  0  0  0  0  0  0  0  0  0  0
    0.8991    2.5934   -1.0065 C   0  0  0  0  0  0  0  0  0  0  0  0
    0.2798    1.8687   -1.5706 H   0  0  0  0  0  0  0  0  0  0  0  0
    2.3121    2.5814   -1.6232 C   0  0  0  0  0  0  0  0  0  0  0  0
    2.8010    1.5896   -1.5116 H   0  0  0  0  0  0  0  0  0  0  0  0
    2.9649    3.3251   -1.1213 H   0  0  0  0  0  0  0  0  0  0  0  0
    2.2717    2.8297   -2.7035 H   0  0  0  0  0  0  0  0  0  0  0  0
    0.2429    3.9717   -1.1645 C   0  0  0  0  0  0  0  0  0  0  0  0
   -0.7537    4.0076   -0.6864 H   0  0  0  0  0  0  0  0  0  0  0  0
    0.1171    4.2114   -2.2396 H   0  0  0  0  0  0  0  0  0  0  0  0
    0.8667    4.7771   -0.7252 H   0  0  0  0  0  0  0  0  0  0  0  0
  1 36  1  0  0  0  0
  2  1  1  0  0  0  0
  3  4  1  0  0  0  0
  3  2  1  0  0  0  0
  4  7  1  0  0  0  0
  5  3  2  0  0  0  0
  6  5  1  0  0  0  0
  7 10  1  0  0  0  0
  7  1  1  0  0  0  0
  7 25  1  0  0  0  0
  8 13  2  0  0  0  0
  8  5  1  0  0  0  0
  9  8  1  0  0  0  0
 10 15  1  0  0  0  0
 11 12  1  0  0  0  0
 11  4  2  0  0  0  0
 13 11  1  0  0  0  0
 14 13  1  0  0  0  0
 15 17  2  0  0  0  0
 15 16  1  0  0  0  0
 17 18  1  0  0  0  0
 19 20  1  0  0  0  0
 19 17  1  0  0  0  0
 21 19  2  0  0  0  0
 22 21  1  0  0  0  0
 23 21  1  0  0  0  0
 23 10  2  0  0  0  0
 24 23  1  0  0  0  0
 25 26  2  0  0  0  0
 25 34  1  0  0  0  0
 26 28  1  0  0  0  0
 27 26  1  0  0  0  0
 28 29  1  0  0  0  0
 28 30  2  0  0  0  0
 30 31  1  0  0  0  0
 32 30  1  0  0  0  0
 32 33  1  0  0  0  0
 34 32  2  0  0  0  0
 35 34  1  0  0  0  0
 36 37  1  0  0  0  0
 37 45  1  0  0  0  0
 37 38  2  0  0  0  0
 38 39  1  0  0  0  0
 40 38  1  0  0  0  0
 40 41  1  0  0  0  0
 42 40  2  0  0  0  0
 43 42  1  0  0  0  0
 44 36  2  0  0  0  0
 44 42  1  0  0  0  0
 45 51  1  0  0  0  0
 45 47  1  0  0  0  0
 46 45  1  0  0  0  0
 47 50  1  0  0  0  0
 47 49  1  0  0  0  0
 48 47  1  0  0  0  0
 51 54  1  0  0  0  0
 51 52  1  0  0  0  0
 53 51  1  0  0  0  0
 55 44  1  0  0  0  0
 56 55  1  0  0  0  0
 57 58  1  0  0  0  0
 57 59  1  0  0  0  0
 57 55  1  0  0  0  0
 60 57  1  0  0  0  0
 61 55  1  0  0  0  0
 61 64  1  0  0  0  0
 61 62  1  0  0  0  0
 63 61  1  0  0  0  0
M  END
