3
 OpenBabel05122313113D

  8  7  0  0  0  0  0  0  0  0999 V2000
   -0.5948    0.8633    2.1538 N   0  0  0  0  0  0  0  0  0  0  0  0
   -1.3080    0.9536    1.4028 H   0  0  0  0  0  0  0  0  0  0  0  0
    0.5262    0.2230    1.8182 C   0  0  0  0  0  2  0  0  0  0  0  0
    1.1973    0.1403    2.7085 H   0  0  0  0  0  0  0  0  0  0  0  0
   -0.9454    1.3747    3.4609 C   0  0  0  0  0  0  0  0  0  0  0  0
   -0.1101    1.1974    4.1668 H   0  0  0  0  0  0  0  0  0  0  0  0
   -1.8550    0.8722    3.8542 H   0  0  0  0  0  0  0  0  0  0  0  0
   -1.1493    2.4654    3.4156 H   0  0  0  0  0  0  0  0  0  0  0  0
  1  5  1  0  0  0  0
  2  1  1  0  0  0  0
  3  1  1  0  0  0  0
  3  4  1  0  0  0  0
  5  7  1  0  0  0  0
  5  6  1  0  0  0  0
  8  5  1  0  0  0  0
M  END
