4
 OpenBabel05122313113D

 33 33  0  0  0  0  0  0  0  0999 V2000
   -1.8420   -0.6521   -0.0251 Si  0  0  0  0  0  0  0  0  0  0  0  0
   -0.4314    0.5422   -0.0275 N   0  0  0  0  0  0  0  0  0  0  0  0
    0.0730    1.0876    1.2552 B   0  0  0  0  0  0  0  0  0  0  0  0
    0.1683    0.8950   -1.2384 C   0  0  0  0  0  3  0  0  0  0  0  0
    1.2326    1.8222   -1.3049 C   0  0  0  0  0  0  0  0  0  0  0  0
    1.8232    2.3292   -0.1059 C   0  0  0  0  0  0  0  0  0  0  0  0
    1.2907    1.9969    1.1590 C   0  0  0  0  0  0  0  0  0  0  0  0
   -1.6773   -1.7856    1.4602 C   0  0  0  0  0  0  0  0  0  0  0  0
   -1.7549   -1.6543   -1.6179 C   0  0  0  0  0  0  0  0  0  0  0  0
   -3.4282    0.4298    0.0235 C   0  0  0  0  0  0  0  0  0  0  0  0
   -3.5162    1.2048    1.3508 C   0  0  0  0  0  0  0  0  0  0  0  0
   -4.6440   -0.5103   -0.1082 C   0  0  0  0  0  0  0  0  0  0  0  0
   -3.4087    1.4240   -1.1527 C   0  0  0  0  0  0  0  0  0  0  0  0
   -0.4797    0.7518    2.2771 H   0  0  0  0  0  0  0  0  0  0  0  0
   -0.2443    0.4558   -2.1571 H   0  0  0  0  0  0  0  0  0  0  0  0
    1.6627    2.0542   -2.2881 H   0  0  0  0  0  0  0  0  0  0  0  0
    2.7285    2.9499   -0.2001 H   0  0  0  0  0  0  0  0  0  0  0  0
    1.8213    2.3574    2.0523 H   0  0  0  0  0  0  0  0  0  0  0  0
   -2.4788   -2.5516    1.4235 H   0  0  0  0  0  0  0  0  0  0  0  0
   -0.7014   -2.3094    1.4439 H   0  0  0  0  0  0  0  0  0  0  0  0
   -1.7578   -1.2445    2.4215 H   0  0  0  0  0  0  0  0  0  0  0  0
   -1.9636   -1.0571   -2.5277 H   0  0  0  0  0  0  0  0  0  0  0  0
   -0.7703   -2.1472   -1.7382 H   0  0  0  0  0  0  0  0  0  0  0  0
   -2.5233   -2.4528   -1.5684 H   0  0  0  0  0  0  0  0  0  0  0  0
   -3.5361    0.5277    2.2291 H   0  0  0  0  0  0  0  0  0  0  0  0
   -4.4488    1.8106    1.3781 H   0  0  0  0  0  0  0  0  0  0  0  0
   -2.6643    1.9017    1.4839 H   0  0  0  0  0  0  0  0  0  0  0  0
   -5.5880    0.0773   -0.0765 H   0  0  0  0  0  0  0  0  0  0  0  0
   -4.6390   -1.0708   -1.0658 H   0  0  0  0  0  0  0  0  0  0  0  0
   -4.6917   -1.2492    0.7187 H   0  0  0  0  0  0  0  0  0  0  0  0
   -4.3360    2.0383   -1.1528 H   0  0  0  0  0  0  0  0  0  0  0  0
   -3.3583    0.9118   -2.1360 H   0  0  0  0  0  0  0  0  0  0  0  0
   -2.5515    2.1254   -1.0878 H   0  0  0  0  0  0  0  0  0  0  0  0
  1 10  1  0  0  0  0
  1  8  1  0  0  0  0
  2  1  1  0  0  0  0
  2  3  1  0  0  0  0
  3 14  1  0  0  0  0
  4  2  1  0  0  0  0
  5  4  1  0  0  0  0
  5  6  2  0  0  0  0
  6  7  1  0  0  0  0
  7  3  2  0  0  0  0
  7 18  1  0  0  0  0
  8 21  1  0  0  0  0
  9 24  1  0  0  0  0
  9  1  1  0  0  0  0
 10 11  1  0  0  0  0
 11 26  1  0  0  0  0
 11 27  1  0  0  0  0
 11 25  1  0  0  0  0
 12 28  1  0  0  0  0
 12 10  1  0  0  0  0
 12 30  1  0  0  0  0
 13 33  1  0  0  0  0
 13 10  1  0  0  0  0
 15  4  1  0  0  0  0
 16  5  1  0  0  0  0
 17  6  1  0  0  0  0
 19  8  1  0  0  0  0
 20  8  1  0  0  0  0
 22  9  1  0  0  0  0
 23  9  1  0  0  0  0
 29 12  1  0  0  0  0
 31 13  1  0  0  0  0
 32 13  1  0  0  0  0
M  END
