5
 OpenBabel05122313113D

 22 21  0  0  0  0  0  0  0  0999 V2000
   -2.8690    0.7830    1.8499 O   0  0  0  0  0  0  0  0  0  0  0  0
   -3.9662   -0.1659    0.1074 O   0  0  0  0  0  0  0  0  0  0  0  0
   -1.2269    2.9841    0.5783 O   0  0  0  0  0  0  0  0  0  0  0  0
   -0.8782    2.5592   -1.6270 O   0  0  0  0  0  0  0  0  0  0  0  0
   -1.9257    0.8598   -0.3993 C   0  0  0  0  0  3  0  0  0  0  0  0
   -2.9308    0.5233    0.6497 C   0  0  0  0  0  0  0  0  0  0  0  0
   -1.3344    2.2244   -0.3755 C   0  0  0  0  0  0  0  0  0  0  0  0
   -4.8802   -0.7871    1.0308 C   0  0  0  0  0  0  0  0  0  0  0  0
   -4.3317   -2.1182    1.5230 C   0  0  0  0  0  0  0  0  0  0  0  0
   -0.2725    3.8560   -1.7467 C   0  0  0  0  0  0  0  0  0  0  0  0
   -1.3091    4.9503   -1.9541 C   0  0  0  0  0  0  0  0  0  0  0  0
   -2.2878    0.6004   -1.4069 H   0  0  0  0  0  0  0  0  0  0  0  0
   -5.0723   -0.0946    1.8761 H   0  0  0  0  0  0  0  0  0  0  0  0
   -5.8147   -0.9224    0.4514 H   0  0  0  0  0  0  0  0  0  0  0  0
   -5.0840   -2.6355    2.1528 H   0  0  0  0  0  0  0  0  0  0  0  0
   -3.4203   -1.9583    2.1319 H   0  0  0  0  0  0  0  0  0  0  0  0
   -4.0662   -2.7700    0.6675 H   0  0  0  0  0  0  0  0  0  0  0  0
    0.4043    3.7728   -2.6212 H   0  0  0  0  0  0  0  0  0  0  0  0
    0.3290    4.0602   -0.8353 H   0  0  0  0  0  0  0  0  0  0  0  0
   -1.9494    4.7250   -2.8301 H   0  0  0  0  0  0  0  0  0  0  0  0
   -0.8107    5.9257   -2.1287 H   0  0  0  0  0  0  0  0  0  0  0  0
   -1.9515    5.0451   -1.0575 H   0  0  0  0  0  0  0  0  0  0  0  0
  2  6  1  0  0  0  0
  2  8  1  0  0  0  0
  4  7  1  0  0  0  0
  5  7  1  0  0  0  0
  5  6  1  0  0  0  0
  6  1  2  0  0  0  0
  7  3  2  0  0  0  0
  8  9  1  0  0  0  0
  8 13  1  0  0  0  0
  9 16  1  0  0  0  0
  9 15  1  0  0  0  0
 10  4  1  0  0  0  0
 10 19  1  0  0  0  0
 11 10  1  0  0  0  0
 11 22  1  0  0  0  0
 12  5  1  0  0  0  0
 14  8  1  0  0  0  0
 17  9  1  0  0  0  0
 18 10  1  0  0  0  0
 20 11  1  0  0  0  0
 21 11  1  0  0  0  0
M  END
