29
 OpenBabel05122313113D

 50 53  0  0  1  0  0  0  0  0999 V2000
   -0.8332    1.5023   -0.3327 C   0  0  0  0  0  0  0  0  0  0  0  0
   -0.9212    2.8467   -0.0616 O   0  0  0  0  0  0  0  0  0  0  0  0
   -0.5213    3.2801    1.2424 C   0  0  0  0  0  0  0  0  0  0  0  0
   -0.6973    4.3718    1.2722 H   0  0  0  0  0  0  0  0  0  0  0  0
    0.5515    3.0754    1.4415 H   0  0  0  0  0  0  0  0  0  0  0  0
   -1.1327    2.7725    2.0173 H   0  0  0  0  0  0  0  0  0  0  0  0
   -2.0851    0.8227   -0.4976 C   0  0  0  0  0  0  0  0  0  0  0  0
   -3.3539    1.6410   -0.3883 C   0  0  0  0  0  0  0  0  0  0  0  0
   -3.2761    2.3027    0.4952 H   0  0  0  0  0  0  0  0  0  0  0  0
   -4.2125    0.9704   -0.1975 H   0  0  0  0  0  0  0  0  0  0  0  0
   -3.6093    2.4975   -1.6372 C   0  0  0  0  0  0  0  0  0  0  0  0
   -4.5554    3.0651   -1.5329 H   0  0  0  0  0  0  0  0  0  0  0  0
   -3.6857    1.8776   -2.5528 H   0  0  0  0  0  0  0  0  0  0  0  0
   -2.7873    3.2244   -1.7847 H   0  0  0  0  0  0  0  0  0  0  0  0
   -2.0881   -0.5669   -0.8482 C   0  0  0  0  0  0  0  0  0  0  0  0
   -3.3622   -1.3507   -1.0770 C   0  0  0  0  0  0  0  0  0  0  0  0
   -4.1338   -1.0000   -0.3639 H   0  0  0  0  0  0  0  0  0  0  0  0
   -3.1618   -2.4083   -0.8238 H   0  0  0  0  0  0  0  0  0  0  0  0
   -3.8977   -1.2574   -2.5127 C   0  0  0  0  0  0  0  0  0  0  0  0
   -4.8160   -1.8669   -2.6287 H   0  0  0  0  0  0  0  0  0  0  0  0
   -3.1541   -1.6282   -3.2466 H   0  0  0  0  0  0  0  0  0  0  0  0
   -4.1474   -0.2147   -2.7922 H   0  0  0  0  0  0  0  0  0  0  0  0
   -0.8348   -1.2565   -0.9182 C   0  0  0  0  0  0  0  0  0  0  0  0
   -0.8934   -2.5864   -1.2588 O   0  0  0  0  0  0  0  0  0  0  0  0
   -0.4008   -2.8737   -2.5694 C   0  0  0  0  0  0  0  0  0  0  0  0
   -0.5508   -3.9576   -2.7291 H   0  0  0  0  0  0  0  0  0  0  0  0
    0.6812   -2.6384   -2.6647 H   0  0  0  0  0  0  0  0  0  0  0  0
   -0.9664   -2.3071   -3.3405 H   0  0  0  0  0  0  0  0  0  0  0  0
    0.4364   -0.6136   -0.6520 C   0  0  2  0  0  3  0  0  0  0  0  0
    1.6922   -1.3567   -0.4048 C   0  0  0  0  0  0  0  0  0  0  0  0
    1.7150   -2.7588   -0.1754 C   0  0  0  0  0  0  0  0  0  0  0  0
    0.7760   -3.3204   -0.2043 H   0  0  0  0  0  0  0  0  0  0  0  0
    2.8936   -3.4259    0.1533 C   0  0  0  0  0  0  0  0  0  0  0  0
    2.8649   -4.5094    0.3430 H   0  0  0  0  0  0  0  0  0  0  0  0
    4.0998   -2.7134    0.2758 C   0  0  0  0  0  0  0  0  0  0  0  0
    5.0310   -3.2293    0.5533 H   0  0  0  0  0  0  0  0  0  0  0  0
    4.0983   -1.3363    0.0691 C   0  0  0  0  0  0  0  0  0  0  0  0
    5.0352   -0.7802    0.2061 H   0  0  0  0  0  0  0  0  0  0  0  0
    2.9177   -0.6338   -0.2777 C   0  0  0  0  0  0  0  0  0  0  0  0
    2.9409    0.8145   -0.5075 C   0  0  0  0  0  0  0  0  0  0  0  0
    4.1615    1.5106   -0.6873 C   0  0  0  0  0  0  0  0  0  0  0  0
    5.1092    0.9580   -0.6431 H   0  0  0  0  0  0  0  0  0  0  0  0
    4.1951    2.8771   -0.9594 C   0  0  0  0  0  0  0  0  0  0  0  0
    5.1612    3.3854   -1.0981 H   0  0  0  0  0  0  0  0  0  0  0  0
    2.9895    3.5885   -1.0853 C   0  0  0  0  0  0  0  0  0  0  0  0
    2.9967    4.6597   -1.3367 H   0  0  0  0  0  0  0  0  0  0  0  0
    1.7736    2.9296   -0.9062 C   0  0  0  0  0  0  0  0  0  0  0  0
    0.8366    3.4816   -1.0373 H   0  0  0  0  0  0  0  0  0  0  0  0
    1.7179    1.5463   -0.5913 C   0  0  0  0  0  0  0  0  0  0  0  0
    0.4316    0.8294   -0.5047 C   0  0  1  0  0  3  0  0  0  0  0  0
  1  2  1  0  0  0  0
  2  3  1  0  0  0  0
  3  4  1  0  0  0  0
  3  5  1  0  0  0  0
  3  6  1  0  0  0  0
  7  8  1  0  0  0  0
  7  1  2  0  0  0  0
  8 10  1  0  0  0  0
  8  9  1  0  0  0  0
 11 12  1  0  0  0  0
 11  8  1  0  0  0  0
 13 11  1  0  0  0  0
 14 11  1  0  0  0  0
 15  7  1  0  0  0  0
 16 15  1  0  0  0  0
 16 18  1  0  0  0  0
 16 17  1  0  0  0  0
 19 16  1  0  0  0  0
 20 19  1  0  0  0  0
 21 19  1  0  0  0  0
 22 19  1  0  0  0  0
 23 15  2  0  0  0  0
 24 23  1  0  0  0  0
 25 24  1  0  0  0  0
 26 25  1  0  0  0  0
 27 25  1  0  0  0  0
 28 25  1  0  0  0  0
 29 23  1  1  0  0  0
 29 50  1  0  0  0  0
 29 30  1  0  0  0  0
 30 39  2  0  0  0  0
 30 31  1  0  0  0  0
 31 33  2  0  0  0  0
 32 31  1  0  0  0  0
 33 35  1  0  0  0  0
 33 34  1  0  0  0  0
 35 36  1  0  0  0  0
 37 38  1  0  0  0  0
 37 35  2  0  0  0  0
 39 37  1  0  0  0  0
 40 39  1  0  0  0  0
 41 42  1  0  0  0  0
 41 40  2  0  0  0  0
 43 41  1  0  0  0  0
 44 43  1  0  0  0  0
 45 43  2  0  0  0  0
 45 47  1  0  0  0  0
 46 45  1  0  0  0  0
 47 49  2  0  0  0  0
 48 47  1  0  0  0  0
 49 40  1  0  0  0  0
 50 49  1  6  0  0  0
 50  1  1  0  0  0  0
M  END
