4
 OpenBabel05122313113D

 54 58  0  0  1  0  0  0  0  0999 V2000
    0.0025   -0.7940    1.4601 C   0  0  0  0  0  0  0  0  0  0  0  0
    1.2147   -0.1280    1.0305 C   0  0  0  0  0  0  0  0  0  0  0  0
    0.8098    1.1280    0.4057 C   0  0  1  0  0  3  0  0  0  0  0  0
   -0.6405    1.1856    0.3991 C   0  0  1  0  0  3  0  0  0  0  0  0
   -1.1517   -0.0576    0.9869 C   0  0  2  0  0  3  0  0  0  0  0  0
    0.0794   -1.9152    2.1664 O   0  0  0  0  0  0  0  0  0  0  0  0
   -1.0867   -2.7006    2.4457 C   0  0  0  0  0  0  0  0  0  0  0  0
   -0.7247   -3.5586    3.0397 H   0  0  0  0  0  0  0  0  0  0  0  0
   -1.5354   -3.0650    1.5012 H   0  0  0  0  0  0  0  0  0  0  0  0
   -1.8298   -2.1204    3.0270 H   0  0  0  0  0  0  0  0  0  0  0  0
    2.5963   -0.5579    1.3427 C   0  0  0  0  0  0  0  0  0  0  0  0
    2.9013   -1.1087    2.6075 C   0  0  0  0  0  0  0  0  0  0  0  0
    2.0974   -1.2567    3.3406 H   0  0  0  0  0  0  0  0  0  0  0  0
    4.2176   -1.4664    2.9326 C   0  0  0  0  0  0  0  0  0  0  0  0
    4.4342   -1.8950    3.9230 H   0  0  0  0  0  0  0  0  0  0  0  0
    5.2526   -1.2809    2.0041 C   0  0  0  0  0  0  0  0  0  0  0  0
    6.2845   -1.5661    2.2589 H   0  0  0  0  0  0  0  0  0  0  0  0
    4.9600   -0.7355    0.7434 C   0  0  0  0  0  0  0  0  0  0  0  0
    5.7609   -0.5934    0.0023 H   0  0  0  0  0  0  0  0  0  0  0  0
    3.6469   -0.3791    0.4150 C   0  0  0  0  0  0  0  0  0  0  0  0
    3.4325    0.0365   -0.5785 H   0  0  0  0  0  0  0  0  0  0  0  0
    1.7152    2.2399    0.0256 C   0  0  0  0  0  0  0  0  0  0  0  0
    2.6824    2.6938    0.9479 C   0  0  0  0  0  0  0  0  0  0  0  0
    2.7843    2.1886    1.9193 H   0  0  0  0  0  0  0  0  0  0  0  0
    3.5081    3.7821    0.6311 C   0  0  0  0  0  0  0  0  0  0  0  0
    4.2603    4.1236    1.3582 H   0  0  0  0  0  0  0  0  0  0  0  0
    3.3787    4.4302   -0.6070 C   0  0  0  0  0  0  0  0  0  0  0  0
    4.0309    5.2808   -0.8565 H   0  0  0  0  0  0  0  0  0  0  0  0
    2.4171    3.9845   -1.5289 C   0  0  0  0  0  0  0  0  0  0  0  0
    2.3123    4.4841   -2.5036 H   0  0  0  0  0  0  0  0  0  0  0  0
    1.5923    2.8967   -1.2164 C   0  0  0  0  0  0  0  0  0  0  0  0
    0.8421    2.5387   -1.9369 H   0  0  0  0  0  0  0  0  0  0  0  0
   -1.4726    2.3785    0.1097 C   0  0  0  0  0  0  0  0  0  0  0  0
   -1.0712    3.6370    0.6117 C   0  0  0  0  0  0  0  0  0  0  0  0
   -0.1276    3.7238    1.1682 H   0  0  0  0  0  0  0  0  0  0  0  0
   -1.8681    4.7729    0.4129 C   0  0  0  0  0  0  0  0  0  0  0  0
   -1.5367    5.7443    0.8098 H   0  0  0  0  0  0  0  0  0  0  0  0
   -3.0807    4.6718   -0.2856 C   0  0  0  0  0  0  0  0  0  0  0  0
   -3.7044    5.5644   -0.4452 H   0  0  0  0  0  0  0  0  0  0  0  0
   -3.4944    3.4236   -0.7781 C   0  0  0  0  0  0  0  0  0  0  0  0
   -4.4444    3.3319   -1.3257 H   0  0  0  0  0  0  0  0  0  0  0  0
   -2.7008    2.2866   -0.5806 C   0  0  0  0  0  0  0  0  0  0  0  0
   -3.0374    1.3182   -0.9724 H   0  0  0  0  0  0  0  0  0  0  0  0
   -2.5936   -0.3014    1.2638 C   0  0  0  0  0  0  0  0  0  0  0  0
   -3.2296    0.4453    2.2786 C   0  0  0  0  0  0  0  0  0  0  0  0
   -2.6455    1.1795    2.8539 H   0  0  0  0  0  0  0  0  0  0  0  0
   -4.5943    0.2648    2.5452 C   0  0  0  0  0  0  0  0  0  0  0  0
   -5.0784    0.8552    3.3379 H   0  0  0  0  0  0  0  0  0  0  0  0
   -5.3412   -0.6613    1.7996 C   0  0  0  0  0  0  0  0  0  0  0  0
   -6.4127   -0.8015    2.0077 H   0  0  0  0  0  0  0  0  0  0  0  0
   -4.7174   -1.4021    0.7828 C   0  0  0  0  0  0  0  0  0  0  0  0
   -5.2976   -2.1245    0.1890 H   0  0  0  0  0  0  0  0  0  0  0  0
   -3.3536   -1.2209    0.5119 C   0  0  0  0  0  0  0  0  0  0  0  0
   -2.8579   -1.7977   -0.2848 H   0  0  0  0  0  0  0  0  0  0  0  0
  1  6  1  0  0  0  0
  2 11  1  0  0  0  0
  2  1  2  0  0  0  0
  3 22  1  1  0  0  0
  3  2  1  0  0  0  0
  4 33  1  1  0  0  0
  4  3  1  0  0  0  0
  4  5  1  0  0  0  0
  5 44  1  1  0  0  0
  5  1  1  0  0  0  0
  6  7  1  0  0  0  0
  7 10  1  0  0  0  0
  7  8  1  0  0  0  0
  9  7  1  0  0  0  0
 11 12  1  0  0  0  0
 12 14  2  0  0  0  0
 12 13  1  0  0  0  0
 14 15  1  0  0  0  0
 16 17  1  0  0  0  0
 16 14  1  0  0  0  0
 18 16  2  0  0  0  0
 19 18  1  0  0  0  0
 20 18  1  0  0  0  0
 20 11  2  0  0  0  0
 21 20  1  0  0  0  0
 22 23  1  0  0  0  0
 23 24  1  0  0  0  0
 25 23  2  0  0  0  0
 25 26  1  0  0  0  0
 27 25  1  0  0  0  0
 28 27  1  0  0  0  0
 29 31  1  0  0  0  0
 29 27  2  0  0  0  0
 30 29  1  0  0  0  0
 31 22  2  0  0  0  0
 32 31  1  0  0  0  0
 33 34  1  0  0  0  0
 34 35  1  0  0  0  0
 36 34  2  0  0  0  0
 36 37  1  0  0  0  0
 38 36  1  0  0  0  0
 39 38  1  0  0  0  0
 40 42  1  0  0  0  0
 40 38  2  0  0  0  0
 41 40  1  0  0  0  0
 42 33  2  0  0  0  0
 43 42  1  0  0  0  0
 44 45  1  0  0  0  0
 45 47  2  0  0  0  0
 45 46  1  0  0  0  0
 47 48  1  0  0  0  0
 49 50  1  0  0  0  0
 49 47  1  0  0  0  0
 51 49  2  0  0  0  0
 52 51  1  0  0  0  0
 53 51  1  0  0  0  0
 53 44  2  0  0  0  0
 54 53  1  0  0  0  0
M  END
