2
 OpenBabel05122313113D

 10  9  0  0  0  0  0  0  0  0999 V2000
    0.4506   -3.0716   -0.0943 S   0  0  0  0  0  0  0  0  0  0  0  0
    1.4521   -1.7241   -0.3566 C   0  0  0  0  0  2  0  0  0  0  0  0
    2.6224   -1.8103   -1.2654 C   0  0  0  0  0  0  0  0  0  0  0  0
    0.9777   -4.4368   -1.1877 C   0  0  0  0  0  0  0  0  0  0  0  0
    3.5458   -1.6198   -0.6769 H   0  0  0  0  0  0  0  0  0  0  0  0
    2.7307   -2.7603   -1.8192 H   0  0  0  0  0  0  0  0  0  0  0  0
    2.5874   -0.9454   -1.9685 H   0  0  0  0  0  0  0  0  0  0  0  0
    0.2737   -5.2621   -0.9693 H   0  0  0  0  0  0  0  0  0  0  0  0
    0.8683   -4.1351   -2.2468 H   0  0  0  0  0  0  0  0  0  0  0  0
    2.0099   -4.7660   -0.9658 H   0  0  0  0  0  0  0  0  0  0  0  0
  2  1  1  0  0  0  0
  3  5  1  0  0  0  0
  3  2  1  0  0  0  0
  4  8  1  0  0  0  0
  4 10  1  0  0  0  0
  4  1  1  0  0  0  0
  6  3  1  0  0  0  0
  7  3  1  0  0  0  0
  9  4  1  0  0  0  0
M  END
