3
 OpenBabel05122313113D

 31 33  0  0  1  0  0  0  0  0999 V2000
    1.9678   -1.1950    0.4897 N   0  0  0  0  0  0  0  0  0  0  0  0
    3.3049    0.3746   -0.2922 N   0  0  0  0  0  0  0  0  0  0  0  0
    1.1161   -0.1966    0.0103 C   0  0  0  0  0  3  0  0  0  0  0  0
    1.9704    0.7893   -0.4732 C   0  0  0  0  0  0  0  0  0  0  0  0
    4.4673    1.0688   -0.8274 C   0  0  0  0  0  0  0  0  0  0  0  0
    5.0366    1.5930   -0.0343 H   0  0  0  0  0  0  0  0  0  0  0  0
    4.1139    1.8192   -1.5561 H   0  0  0  0  0  0  0  0  0  0  0  0
    5.1332    0.3604   -1.3502 H   0  0  0  0  0  0  0  0  0  0  0  0
    3.3088   -0.8500    0.3157 C   0  0  1  0  0  3  0  0  0  0  0  0
    5.8114   -1.3772    0.6379 C   0  0  0  0  0  0  0  0  0  0  0  0
    6.4123   -2.1196    1.1954 H   0  0  0  0  0  0  0  0  0  0  0  0
    6.0485   -0.3773    1.0511 H   0  0  0  0  0  0  0  0  0  0  0  0
    6.1623   -1.3954   -0.4141 H   0  0  0  0  0  0  0  0  0  0  0  0
    4.3458   -1.7129    0.7594 C   0  0  0  0  0  0  0  0  0  0  0  0
    3.9380   -2.9115    1.3511 C   0  0  0  0  0  0  0  0  0  0  0  0
    4.7110   -3.6035    1.7172 H   0  0  0  0  0  0  0  0  0  0  0  0
    2.5684   -3.2498    1.5059 C   0  0  0  0  0  0  0  0  0  0  0  0
    2.2739   -4.1973    1.9758 H   0  0  0  0  0  0  0  0  0  0  0  0
    1.5929   -2.3798    1.0764 C   0  0  0  0  0  0  0  0  0  0  0  0
    0.5071   -2.5281    1.1495 H   0  0  0  0  0  0  0  0  0  0  0  0
    1.5909    2.0839   -1.0522 C   0  0  0  0  0  0  0  0  0  0  0  0
    2.1829    3.2945   -0.6235 C   0  0  0  0  0  0  0  0  0  0  0  0
    2.9493    3.2800    0.1659 H   0  0  0  0  0  0  0  0  0  0  0  0
    1.7605    4.5197   -1.1568 C   0  0  0  0  0  0  0  0  0  0  0  0
    2.2209    5.4552   -0.8046 H   0  0  0  0  0  0  0  0  0  0  0  0
    0.7371    4.5555   -2.1174 C   0  0  0  0  0  0  0  0  0  0  0  0
    0.4032    5.5192   -2.5312 H   0  0  0  0  0  0  0  0  0  0  0  0
    0.1359    3.3587   -2.5403 C   0  0  0  0  0  0  0  0  0  0  0  0
   -0.6688    3.3794   -3.2908 H   0  0  0  0  0  0  0  0  0  0  0  0
    0.5560    2.1301   -2.0148 C   0  0  0  0  0  0  0  0  0  0  0  0
    0.0904    1.1880   -2.3431 H   0  0  0  0  0  0  0  0  0  0  0  0
  1 19  1  0  0  0  0
  2  9  1  0  0  0  0
  3  1  1  0  0  0  0
  4  2  1  0  0  0  0
  4  3  2  0  0  0  0
  5  2  1  0  0  0  0
  5  6  1  0  0  0  0
  7  5  1  0  0  0  0
  8  5  1  0  0  0  0
  9  1  1  0  0  0  0
  9 14  1  1  0  0  0
 10 14  1  0  0  0  0
 10 12  1  0  0  0  0
 10 11  1  0  0  0  0
 13 10  1  0  0  0  0
 14 15  2  0  0  0  0
 15 17  1  0  0  0  0
 15 16  1  0  0  0  0
 17 18  1  0  0  0  0
 19 20  1  0  0  0  0
 19 17  2  0  0  0  0
 21 22  1  0  0  0  0
 21  4  1  0  0  0  0
 22 23  1  0  0  0  0
 24 25  1  0  0  0  0
 24 22  2  0  0  0  0
 26 24  1  0  0  0  0
 27 26  1  0  0  0  0
 28 26  2  0  0  0  0
 28 30  1  0  0  0  0
 29 28  1  0  0  0  0
 30 21  2  0  0  0  0
 31 30  1  0  0  0  0
M  END
