3
 OpenBabel05122313113D

 34 34  0  0  0  0  0  0  0  0999 V2000
    1.6884    0.6656   -0.4267 N   0  0  0  0  0  4  0  0  0  0  0  0
    4.2944   -1.1148   -0.5050 N   0  0  0  0  0  0  0  0  0  0  0  0
   -0.6149    1.4166    0.3433 C   0  0  0  0  0  3  0  0  0  0  0  0
   -1.3801    2.4796    0.9002 C   0  0  0  0  0  0  0  0  0  0  0  0
   -2.4532    2.3131    1.1018 H   0  0  0  0  0  0  0  0  0  0  0  0
   -0.8470    3.7369    1.2134 C   0  0  0  0  0  0  0  0  0  0  0  0
   -1.4890    4.5210    1.6451 H   0  0  0  0  0  0  0  0  0  0  0  0
    0.5138    3.9951    0.9784 C   0  0  0  0  0  0  0  0  0  0  0  0
    0.9552    4.9734    1.2202 H   0  0  0  0  0  0  0  0  0  0  0  0
    1.3147    2.9877    0.4271 C   0  0  0  0  0  0  0  0  0  0  0  0
    2.3818    3.2006    0.2579 H   0  0  0  0  0  0  0  0  0  0  0  0
    0.7237    1.7467    0.1191 C   0  0  0  0  0  0  0  0  0  0  0  0
    0.9484   -0.5173   -0.9750 C   0  0  0  0  0  0  0  0  0  0  0  0
    0.2051   -0.1568   -1.7067 H   0  0  0  0  0  0  0  0  0  0  0  0
    0.4356   -1.0487   -0.1505 H   0  0  0  0  0  0  0  0  0  0  0  0
    1.6833   -1.1780   -1.4666 H   0  0  0  0  0  0  0  0  0  0  0  0
    2.5143    1.2169   -1.5556 C   0  0  0  0  0  0  0  0  0  0  0  0
    3.1956    0.4151   -1.8934 H   0  0  0  0  0  0  0  0  0  0  0  0
    3.0988    2.0823   -1.2051 H   0  0  0  0  0  0  0  0  0  0  0  0
    1.8221    1.5401   -2.3533 H   0  0  0  0  0  0  0  0  0  0  0  0
    2.5606    0.2360    0.7512 C   0  0  0  0  0  0  0  0  0  0  0  0
    1.8591    0.1219    1.5992 H   0  0  0  0  0  0  0  0  0  0  0  0
    3.2156    1.0979    0.9767 H   0  0  0  0  0  0  0  0  0  0  0  0
    3.3405   -1.0660    0.5962 C   0  0  0  0  0  0  0  0  0  0  0  0
    3.8312   -1.2398    1.5925 H   0  0  0  0  0  0  0  0  0  0  0  0
    2.6265   -1.9050    0.4782 H   0  0  0  0  0  0  0  0  0  0  0  0
    5.4626   -0.2778   -0.2760 C   0  0  0  0  0  0  0  0  0  0  0  0
    5.1676    0.7772   -0.1073 H   0  0  0  0  0  0  0  0  0  0  0  0
    6.1229   -0.2987   -1.1658 H   0  0  0  0  0  0  0  0  0  0  0  0
    6.0663   -0.6068    0.6099 H   0  0  0  0  0  0  0  0  0  0  0  0
    4.6709   -2.4819   -0.8371 C   0  0  0  0  0  0  0  0  0  0  0  0
    5.2130   -3.0039   -0.0062 H   0  0  0  0  0  0  0  0  0  0  0  0
    5.3325   -2.4842   -1.7262 H   0  0  0  0  0  0  0  0  0  0  0  0
    3.7685   -3.0781   -1.0810 H   0  0  0  0  0  0  0  0  0  0  0  0
  1 12  1  0  0  0  0
  1 21  1  0  0  0  0
  2 27  1  0  0  0  0
  2 24  1  0  0  0  0
  3  4  1  0  0  0  0
  4  5  1  0  0  0  0
  4  6  2  0  0  0  0
  6  7  1  0  0  0  0
  8  6  1  0  0  0  0
  8  9  1  0  0  0  0
 10  8  2  0  0  0  0
 11 10  1  0  0  0  0
 12  3  2  0  0  0  0
 12 10  1  0  0  0  0
 13  1  1  0  0  0  0
 13 15  1  0  0  0  0
 14 13  1  0  0  0  0
 16 13  1  0  0  0  0
 17 19  1  0  0  0  0
 17  1  1  0  0  0  0
 18 17  1  0  0  0  0
 20 17  1  0  0  0  0
 21 23  1  0  0  0  0
 21 22  1  0  0  0  0
 24 21  1  0  0  0  0
 24 25  1  0  0  0  0
 26 24  1  0  0  0  0
 27 28  1  0  0  0  0
 27 30  1  0  0  0  0
 29 27  1  0  0  0  0
 31  2  1  0  0  0  0
 31 32  1  0  0  0  0
 33 31  1  0  0  0  0
 34 31  1  0  0  0  0
M  END
