10
 OpenBabel05122313113D

 12 11  0  0  0  0  0  0  0  0999 V2000
   -0.5288    2.5257    0.8315 F   0  0  0  0  0  0  0  0  0  0  0  0
   -1.2132    2.6528   -1.2387 F   0  0  0  0  0  0  0  0  0  0  0  0
   -2.6340    2.3221    0.3831 F   0  0  0  0  0  0  0  0  0  0  0  0
   -3.3181    0.5337   -1.3192 F   0  0  0  0  0  0  0  0  0  0  0  0
   -2.1689   -1.3259   -1.4591 F   0  0  0  0  0  0  0  0  0  0  0  0
   -3.4927    0.0565    1.5052 F   0  0  0  0  0  0  0  0  0  0  0  0
   -4.3899   -1.3992    0.1507 F   0  0  0  0  0  0  0  0  0  0  0  0
   -2.5070   -1.8569    1.1540 F   0  0  0  0  0  0  0  0  0  0  0  0
   -1.4042    1.9809   -0.0649 C   0  0  0  0  0  0  0  0  0  0  0  0
   -1.1799    0.4913   -0.2417 C   0  0  0  0  0  0  0  0  0  0  0  0
   -2.4365   -0.2623   -0.6324 C   0  0  0  0  0  0  0  0  0  0  0  0
   -3.2265   -0.8743    0.5729 C   0  0  0  0  0  0  0  0  0  0  0  0
  2  9  1  0  0  0  0
  4 11  1  0  0  0  0
  5 11  1  0  0  0  0
  7 12  1  0  0  0  0
  9  3  1  0  0  0  0
  9  1  1  0  0  0  0
 10  9  1  0  0  0  0
 11 10  1  0  0  0  0
 11 12  1  0  0  0  0
 12  8  1  0  0  0  0
 12  6  1  0  0  0  0
M  END
