9
 OpenBabel05122313113D

 30 31  0  0  0  0  0  0  0  0999 V2000
    3.5070   -1.8467    0.3727 C   0  0  0  0  0  0  0  0  0  0  0  0
    4.8910   -1.8176    0.5835 C   0  0  0  0  0  0  0  0  0  0  0  0
    5.6798   -0.8396   -0.0436 C   0  0  0  0  0  0  0  0  0  0  0  0
    5.0668    0.1068   -0.8806 C   0  0  0  0  0  0  0  0  0  0  0  0
    3.6817    0.0794   -1.0877 C   0  0  0  0  0  0  0  0  0  0  0  0
    2.8732   -0.9006   -0.4659 C   0  0  0  0  0  0  0  0  0  0  0  0
    1.4092   -0.9792   -0.6557 C   0  0  0  0  0  3  0  0  0  0  0  0
    0.7137   -0.3070   -1.7246 C   0  0  0  0  0  3  0  0  0  0  0  0
   -0.7137   -0.3070   -1.7246 C   0  0  0  0  0  3  0  0  0  0  0  0
   -1.4092   -0.9792   -0.6557 C   0  0  0  0  0  3  0  0  0  0  0  0
   -2.8733   -0.9007   -0.4660 C   0  0  0  0  0  0  0  0  0  0  0  0
   -3.6817    0.0794   -1.0877 C   0  0  0  0  0  0  0  0  0  0  0  0
   -5.0668    0.1068   -0.8806 C   0  0  0  0  0  0  0  0  0  0  0  0
   -5.6799   -0.8396   -0.0437 C   0  0  0  0  0  0  0  0  0  0  0  0
   -4.8911   -1.8176    0.5834 C   0  0  0  0  0  0  0  0  0  0  0  0
   -3.5070   -1.8468    0.3726 C   0  0  0  0  0  0  0  0  0  0  0  0
    2.8930   -2.6158    0.8679 H   0  0  0  0  0  0  0  0  0  0  0  0
    5.3585   -2.5651    1.2425 H   0  0  0  0  0  0  0  0  0  0  0  0
    6.7675   -0.8131    0.1210 H   0  0  0  0  0  0  0  0  0  0  0  0
    5.6741    0.8802   -1.3751 H   0  0  0  0  0  0  0  0  0  0  0  0
    3.2243    0.8413   -1.7365 H   0  0  0  0  0  0  0  0  0  0  0  0
    0.9705   -1.9202   -0.2854 H   0  0  0  0  0  0  0  0  0  0  0  0
    1.2517    0.2635   -2.4968 H   0  0  0  0  0  0  0  0  0  0  0  0
   -1.2517    0.2634   -2.4969 H   0  0  0  0  0  0  0  0  0  0  0  0
   -0.9705   -1.9203   -0.2854 H   0  0  0  0  0  0  0  0  0  0  0  0
   -3.2242    0.8413   -1.7365 H   0  0  0  0  0  0  0  0  0  0  0  0
   -5.6741    0.8802   -1.3751 H   0  0  0  0  0  0  0  0  0  0  0  0
   -6.7675   -0.8131    0.1209 H   0  0  0  0  0  0  0  0  0  0  0  0
   -5.3586   -2.5652    1.2423 H   0  0  0  0  0  0  0  0  0  0  0  0
   -2.8931   -2.6159    0.8678 H   0  0  0  0  0  0  0  0  0  0  0  0
  1  2  1  0  0  0  0
  1 17  1  0  0  0  0
  2 18  1  0  0  0  0
  3 19  1  0  0  0  0
  3  2  2  0  0  0  0
  4  3  1  0  0  0  0
  5  4  2  0  0  0  0
  5  6  1  0  0  0  0
  6  1  2  0  0  0  0
  7  6  1  0  0  0  0
  7 22  1  0  0  0  0
  8  7  1  0  0  0  0
  9  8  1  0  0  0  0
  9 10  1  0  0  0  0
 10 11  1  0  0  0  0
 10 25  1  0  0  0  0
 11 16  1  0  0  0  0
 12 13  1  0  0  0  0
 12 11  2  0  0  0  0
 13 14  2  0  0  0  0
 14 28  1  0  0  0  0
 14 15  1  0  0  0  0
 15 29  1  0  0  0  0
 16 15  2  0  0  0  0
 16 30  1  0  0  0  0
 20  4  1  0  0  0  0
 21  5  1  0  0  0  0
 23  8  1  0  0  0  0
 24  9  1  0  0  0  0
 26 12  1  0  0  0  0
 27 13  1  0  0  0  0
M  END
