7
 OpenBabel05122313113D

 29 29  0  0  0  0  0  0  0  0999 V2000
    3.5899   -1.3162   -0.2304 O   0  0  0  0  0  0  0  0  0  0  0  0
    3.4632    0.6533   -1.3604 O   0  0  0  0  0  0  0  0  0  0  0  0
    5.5567   -2.2429    0.7668 C   0  0  0  0  0  0  0  0  0  0  0  0
    5.0043   -1.0951   -0.0526 C   0  0  0  0  0  0  0  0  0  0  0  0
    2.9233   -0.3432   -0.9023 C   0  0  0  0  0  0  0  0  0  0  0  0
    1.4731   -0.6519   -0.9824 C   0  0  0  0  0  3  0  0  0  0  0  0
    0.6685    0.1237   -1.8999 C   0  0  0  0  0  3  0  0  0  0  0  0
   -0.7477    0.0035   -1.8130 C   0  0  0  0  0  3  0  0  0  0  0  0
   -1.3065   -0.8751   -0.8150 C   0  0  0  0  0  3  0  0  0  0  0  0
   -2.7507   -0.9377   -0.5051 C   0  0  0  0  0  0  0  0  0  0  0  0
   -3.2464   -2.0423    0.2257 C   0  0  0  0  0  0  0  0  0  0  0  0
   -4.6056   -2.1496    0.5451 C   0  0  0  0  0  0  0  0  0  0  0  0
   -5.5069   -1.1529    0.1376 C   0  0  0  0  0  0  0  0  0  0  0  0
   -5.0316   -0.0500   -0.5903 C   0  0  0  0  0  0  0  0  0  0  0  0
   -3.6711    0.0587   -0.9058 C   0  0  0  0  0  0  0  0  0  0  0  0
    6.6459   -2.1099    0.9202 H   0  0  0  0  0  0  0  0  0  0  0  0
    5.3949   -3.2121    0.2545 H   0  0  0  0  0  0  0  0  0  0  0  0
    5.0702   -2.2922    1.7612 H   0  0  0  0  0  0  0  0  0  0  0  0
    5.1539   -0.1117    0.4422 H   0  0  0  0  0  0  0  0  0  0  0  0
    5.4849   -1.0220   -1.0517 H   0  0  0  0  0  0  0  0  0  0  0  0
    1.2087   -1.6957   -0.7539 H   0  0  0  0  0  0  0  0  0  0  0  0
    1.1447    0.8492   -2.5768 H   0  0  0  0  0  0  0  0  0  0  0  0
   -1.3835    0.6497   -2.4375 H   0  0  0  0  0  0  0  0  0  0  0  0
   -0.7754   -1.8224   -0.6286 H   0  0  0  0  0  0  0  0  0  0  0  0
   -2.5435   -2.8268    0.5484 H   0  0  0  0  0  0  0  0  0  0  0  0
   -4.9649   -3.0191    1.1163 H   0  0  0  0  0  0  0  0  0  0  0  0
   -6.5753   -1.2336    0.3880 H   0  0  0  0  0  0  0  0  0  0  0  0
   -5.7281    0.7388   -0.9128 H   0  0  0  0  0  0  0  0  0  0  0  0
   -3.3228    0.9398   -1.4652 H   0  0  0  0  0  0  0  0  0  0  0  0
  1  4  1  0  0  0  0
  2  5  2  0  0  0  0
  3 16  1  0  0  0  0
  3 18  1  0  0  0  0
  4 19  1  0  0  0  0
  4  3  1  0  0  0  0
  5  1  1  0  0  0  0
  6  5  1  0  0  0  0
  6 21  1  0  0  0  0
  7  8  1  0  0  0  0
  7  6  1  0  0  0  0
  8  9  1  0  0  0  0
  9 24  1  0  0  0  0
  9 10  1  0  0  0  0
 10 11  1  0  0  0  0
 11 12  2  0  0  0  0
 11 25  1  0  0  0  0
 12 26  1  0  0  0  0
 13 27  1  0  0  0  0
 13 12  1  0  0  0  0
 14 13  2  0  0  0  0
 15 14  1  0  0  0  0
 15 10  2  0  0  0  0
 17  3  1  0  0  0  0
 20  4  1  0  0  0  0
 22  7  1  0  0  0  0
 23  8  1  0  0  0  0
 28 14  1  0  0  0  0
 29 15  1  0  0  0  0
M  END
