31
 OpenBabel05122313113D

 49 52  0  0  0  0  0  0  0  0999 V2000
    0.9714   -1.8772   -0.6963 N   0  0  0  0  0  0  0  0  0  0  0  0
   -6.7871   -1.3423   -0.6424 N   0  0  0  0  0  0  0  0  0  0  0  0
    3.1092   -1.5618   -0.8764 N   0  0  0  0  0  0  0  0  0  0  0  0
   -5.2639   -0.2482    0.6337 N   0  0  0  0  0  0  0  0  0  0  0  0
   -5.4941   -1.7464   -0.9891 O   0  0  0  0  0  0  0  0  0  0  0  0
   -6.5915   -0.4551    0.3219 C   0  0  0  0  0  0  0  0  0  0  0  0
   -4.6402   -1.0562   -0.1925 C   0  0  0  0  0  0  0  0  0  0  0  0
   -7.7166    0.2738    1.0208 C   0  0  0  0  0  0  0  0  0  0  0  0
   -7.6235   -0.0408    2.5299 C   0  0  0  0  0  0  0  0  0  0  0  0
   -8.4028    0.5222    3.0824 H   0  0  0  0  0  0  0  0  0  0  0  0
   -6.6316    0.2450    2.9311 H   0  0  0  0  0  0  0  0  0  0  0  0
   -7.7771   -1.1219    2.7220 H   0  0  0  0  0  0  0  0  0  0  0  0
   -9.0754   -0.1762    0.4617 C   0  0  0  0  0  0  0  0  0  0  0  0
   -9.1526    0.0306   -0.6236 H   0  0  0  0  0  0  0  0  0  0  0  0
   -9.8918    0.3652    0.9802 H   0  0  0  0  0  0  0  0  0  0  0  0
   -9.2301   -1.2635    0.6051 H   0  0  0  0  0  0  0  0  0  0  0  0
   -7.5147    1.7881    0.7927 C   0  0  0  0  0  0  0  0  0  0  0  0
   -7.5883    2.0421   -0.2838 H   0  0  0  0  0  0  0  0  0  0  0  0
   -6.5206    2.1130    1.1572 H   0  0  0  0  0  0  0  0  0  0  0  0
   -8.2939    2.3596    1.3365 H   0  0  0  0  0  0  0  0  0  0  0  0
   -3.2041   -1.2771   -0.3345 C   0  0  0  0  0  0  0  0  0  0  0  0
   -2.3121   -0.5638    0.4959 C   0  0  0  0  0  0  0  0  0  0  0  0
   -2.7216    0.1409    1.2332 H   0  0  0  0  0  0  0  0  0  0  0  0
   -0.9339   -0.7598    0.3863 C   0  0  0  0  0  0  0  0  0  0  0  0
   -0.2375   -0.2154    1.0391 H   0  0  0  0  0  0  0  0  0  0  0  0
   -0.4349   -1.6634   -0.5703 C   0  0  0  0  0  0  0  0  0  0  0  0
   -1.3151   -2.3761   -1.4053 C   0  0  0  0  0  0  0  0  0  0  0  0
   -0.9156   -3.0588   -2.1690 H   0  0  0  0  0  0  0  0  0  0  0  0
   -2.6946   -2.1882   -1.2844 C   0  0  0  0  0  0  0  0  0  0  0  0
   -3.3871   -2.7359   -1.9388 H   0  0  0  0  0  0  0  0  0  0  0  0
    1.9320   -0.8875   -0.7081 C   0  0  0  0  0  2  0  0  0  0  0  0
    1.5538   -3.1344   -0.8561 C   0  0  0  0  0  0  0  0  0  0  0  0
    0.9631   -4.0543   -0.8485 H   0  0  0  0  0  0  0  0  0  0  0  0
    2.9026   -2.9311   -0.9590 C   0  0  0  0  0  0  0  0  0  0  0  0
    3.7276   -3.6417   -1.0640 H   0  0  0  0  0  0  0  0  0  0  0  0
    4.4325   -0.9238   -0.8858 C   0  0  0  0  0  0  0  0  0  0  0  0
    4.2518    0.1449   -1.1166 H   0  0  0  0  0  0  0  0  0  0  0  0
    5.0180   -1.3665   -1.7153 H   0  0  0  0  0  0  0  0  0  0  0  0
    5.1570   -1.0846    0.4335 C   0  0  0  0  0  0  0  0  0  0  0  0
    4.7355   -0.3516    1.5614 C   0  0  0  0  0  0  0  0  0  0  0  0
    3.8942    0.3547    1.4648 H   0  0  0  0  0  0  0  0  0  0  0  0
    5.3840   -0.5168    2.7926 C   0  0  0  0  0  0  0  0  0  0  0  0
    5.0517    0.0641    3.6660 H   0  0  0  0  0  0  0  0  0  0  0  0
    6.4599   -1.4134    2.9100 C   0  0  0  0  0  0  0  0  0  0  0  0
    6.9698   -1.5391    3.8771 H   0  0  0  0  0  0  0  0  0  0  0  0
    6.8873   -2.1428    1.7904 C   0  0  0  0  0  0  0  0  0  0  0  0
    7.7335   -2.8412    1.8752 H   0  0  0  0  0  0  0  0  0  0  0  0
    6.2363   -1.9787    0.5573 C   0  0  0  0  0  0  0  0  0  0  0  0
    6.5781   -2.5461   -0.3238 H   0  0  0  0  0  0  0  0  0  0  0  0
  1 26  1  0  0  0  0
  2  6  2  0  0  0  0
  3 31  1  0  0  0  0
  5  2  1  0  0  0  0
  5  7  1  0  0  0  0
  6  4  1  0  0  0  0
  6  8  1  0  0  0  0
  7  4  2  0  0  0  0
  8  9  1  0  0  0  0
  9 12  1  0  0  0  0
  9 11  1  0  0  0  0
  9 10  1  0  0  0  0
 13 16  1  0  0  0  0
 13 15  1  0  0  0  0
 13  8  1  0  0  0  0
 14 13  1  0  0  0  0
 17  8  1  0  0  0  0
 17 19  1  0  0  0  0
 17 20  1  0  0  0  0
 18 17  1  0  0  0  0
 21  7  1  0  0  0  0
 21 22  1  0  0  0  0
 22 23  1  0  0  0  0
 24 22  2  0  0  0  0
 24 25  1  0  0  0  0
 26 24  1  0  0  0  0
 27 29  1  0  0  0  0
 27 26  2  0  0  0  0
 28 27  1  0  0  0  0
 29 21  2  0  0  0  0
 30 29  1  0  0  0  0
 31  1  1  0  0  0  0
 32 33  1  0  0  0  0
 32  1  1  0  0  0  0
 34  3  1  0  0  0  0
 34 32  2  0  0  0  0
 35 34  1  0  0  0  0
 36  3  1  0  0  0  0
 36 39  1  0  0  0  0
 37 36  1  0  0  0  0
 38 36  1  0  0  0  0
 39 48  2  0  0  0  0
 39 40  1  0  0  0  0
 40 42  2  0  0  0  0
 41 40  1  0  0  0  0
 42 44  1  0  0  0  0
 42 43  1  0  0  0  0
 44 45  1  0  0  0  0
 46 47  1  0  0  0  0
 46 44  2  0  0  0  0
 48 46  1  0  0  0  0
 49 48  1  0  0  0  0
M  END
