3
 OpenBabel05122313113D

 25 26  0  0  0  0  0  0  0  0999 V2000
   -2.9147    0.0297   -0.4841 P   0  0  0  0  0  4  0  0  0  0  0  0
   -3.6398   -0.5195   -2.4021 Se  0  0  0  0  0  1  0  0  0  0  0  0
   -1.1514   -0.1772   -0.3000 C   0  0  0  0  0  1  0  0  0  0  0  0
   -3.2014    1.7868   -0.0140 C   0  0  0  0  0  0  0  0  0  0  0  0
   -2.2284    2.5204    0.6944 C   0  0  0  0  0  0  0  0  0  0  0  0
   -2.4823    3.8568    1.0418 C   0  0  0  0  0  0  0  0  0  0  0  0
   -3.7017    4.4571    0.6902 C   0  0  0  0  0  0  0  0  0  0  0  0
   -4.6679    3.7246   -0.0211 C   0  0  0  0  0  0  0  0  0  0  0  0
   -4.4175    2.3930   -0.3810 C   0  0  0  0  0  0  0  0  0  0  0  0
   -3.6008   -0.9614    0.9086 C   0  0  0  0  0  0  0  0  0  0  0  0
   -4.0334   -0.3682    2.1101 C   0  0  0  0  0  0  0  0  0  0  0  0
   -4.4843   -1.1796    3.1636 C   0  0  0  0  0  0  0  0  0  0  0  0
   -4.4938   -2.5763    3.0244 C   0  0  0  0  0  0  0  0  0  0  0  0
   -4.0658   -3.1660    1.8226 C   0  0  0  0  0  0  0  0  0  0  0  0
   -3.6277   -2.3626    0.7617 C   0  0  0  0  0  0  0  0  0  0  0  0
   -1.2674    2.0485    0.9528 H   0  0  0  0  0  0  0  0  0  0  0  0
   -1.7182    4.4323    1.5863 H   0  0  0  0  0  0  0  0  0  0  0  0
   -3.8976    5.5053    0.9632 H   0  0  0  0  0  0  0  0  0  0  0  0
   -5.6197    4.1981   -0.3062 H   0  0  0  0  0  0  0  0  0  0  0  0
   -5.1488    1.8140   -0.9679 H   0  0  0  0  0  0  0  0  0  0  0  0
   -4.0194    0.7263    2.2222 H   0  0  0  0  0  0  0  0  0  0  0  0
   -4.8307   -0.7151    4.0996 H   0  0  0  0  0  0  0  0  0  0  0  0
   -4.8423   -3.2095    3.8546 H   0  0  0  0  0  0  0  0  0  0  0  0
   -4.0748   -4.2606    1.7097 H   0  0  0  0  0  0  0  0  0  0  0  0
   -3.3122   -2.8103   -0.1936 H   0  0  0  0  0  0  0  0  0  0  0  0
  1  3  1  0  0  0  0
  1  4  1  0  0  0  0
  1 10  1  0  0  0  0
  2  1  1  0  0  0  0
  4  5  1  0  0  0  0
  5 16  1  0  0  0  0
  5  6  2  0  0  0  0
  6 17  1  0  0  0  0
  7 18  1  0  0  0  0
  7  6  1  0  0  0  0
  8  7  2  0  0  0  0
  9  8  1  0  0  0  0
  9  4  2  0  0  0  0
 10 11  1  0  0  0  0
 11 21  1  0  0  0  0
 11 12  2  0  0  0  0
 12 22  1  0  0  0  0
 13 12  1  0  0  0  0
 13 23  1  0  0  0  0
 14 13  2  0  0  0  0
 15 10  2  0  0  0  0
 15 14  1  0  0  0  0
 19  8  1  0  0  0  0
 20  9  1  0  0  0  0
 24 14  1  0  0  0  0
 25 15  1  0  0  0  0
M  END
