4
 OpenBabel05122313113D

 30 32  0  0  1  0  0  0  0  0999 V2000
   -0.7885   -1.0484    1.2931 C   0  0  0  0  0  3  0  0  0  0  0  0
   -0.3356   -1.3361   -0.0184 C   0  0  0  0  0  3  0  0  0  0  0  0
    0.5452   -0.4046   -0.8352 C   0  0  1  0  0  0  0  0  0  0  0  0
   -0.4188    0.7441   -1.0233 C   0  0  0  0  0  3  0  0  0  0  0  0
   -0.7520    1.4610    0.1631 C   0  0  0  0  0  3  0  0  0  0  0  0
    0.1731    1.2746    1.3756 C   0  0  1  0  0  0  0  0  0  0  0  0
   -0.2140    0.0269    2.1898 C   0  0  0  0  0  0  0  0  0  0  0  0
    1.8778    0.0445   -0.1406 C   0  0  2  0  0  0  0  0  0  0  0  0
    1.6309    1.1659    0.8748 C   0  0  1  0  0  0  0  0  0  0  0  0
    2.0926    2.4265    0.1676 C   0  0  0  0  0  0  0  0  0  0  0  0
    2.8082    2.0760   -0.9860 O   0  0  0  0  0  0  0  0  0  0  0  0
    2.7628    0.7090   -1.2133 C   0  0  0  0  0  0  0  0  0  0  0  0
    3.3111    0.1973   -2.1505 O   0  0  0  0  0  0  0  0  0  0  0  0
    1.9247    3.5739    0.4754 O   0  0  0  0  0  0  0  0  0  0  0  0
    2.6009   -1.1562    0.4782 C   0  0  0  0  0  0  0  0  0  0  0  0
    3.0817   -1.1726    1.5964 O   0  0  0  0  0  0  0  0  0  0  0  0
    2.6203   -2.1940   -0.3736 O   0  0  0  0  0  0  0  0  0  0  0  0
    3.2993   -3.3713    0.0930 C   0  0  0  0  0  0  0  0  0  0  0  0
   -1.2895   -1.8803    1.8158 H   0  0  0  0  0  0  0  0  0  0  0  0
   -0.4602   -2.3564   -0.4096 H   0  0  0  0  0  0  0  0  0  0  0  0
    0.8004   -0.8926   -1.7921 H   0  0  0  0  0  0  0  0  0  0  0  0
   -0.5738    1.1670   -2.0271 H   0  0  0  0  0  0  0  0  0  0  0  0
   -1.2411    2.4409    0.0564 H   0  0  0  0  0  0  0  0  0  0  0  0
    0.1175    2.1750    2.0169 H   0  0  0  0  0  0  0  0  0  0  0  0
    0.6611   -0.3721    2.7512 H   0  0  0  0  0  0  0  0  0  0  0  0
   -0.9719    0.3007    2.9499 H   0  0  0  0  0  0  0  0  0  0  0  0
    2.3119    1.0124    1.7406 H   0  0  0  0  0  0  0  0  0  0  0  0
    4.3627   -3.1462    0.3065 H   0  0  0  0  0  0  0  0  0  0  0  0
    2.8252   -3.7514    1.0197 H   0  0  0  0  0  0  0  0  0  0  0  0
    3.2161   -4.1116   -0.7212 H   0  0  0  0  0  0  0  0  0  0  0  0
  1 19  1  0  0  0  0
  1  7  1  0  0  0  0
  2  1  1  0  0  0  0
  3 21  1  6  0  0  0
  3  8  1  0  0  0  0
  3  2  1  0  0  0  0
  4  3  1  0  0  0  0
  4  5  1  0  0  0  0
  5  6  1  0  0  0  0
  6 24  1  1  0  0  0
  6  7  1  0  0  0  0
  7 25  1  0  0  0  0
  7 26  1  0  0  0  0
  8 15  1  1  0  0  0
  8  9  1  0  0  0  0
  9  6  1  0  0  0  0
  9 27  1  1  0  0  0
 10 14  2  0  0  0  0
 10  9  1  0  0  0  0
 11 10  1  0  0  0  0
 12 11  1  0  0  0  0
 12  8  1  0  0  0  0
 13 12  2  0  0  0  0
 15 16  2  0  0  0  0
 17 18  1  0  0  0  0
 17 15  1  0  0  0  0
 18 28  1  0  0  0  0
 18 29  1  0  0  0  0
 20  2  1  0  0  0  0
 22  4  1  0  0  0  0
 23  5  1  0  0  0  0
 30 18  1  0  0  0  0
M  END
