1
 OpenBabel05122313113D

 30 32  0  0  0  0  0  0  0  0999 V2000
    2.0038   -1.6491   -0.6029 C   0  0  0  0  0  3  0  0  0  0  0  0
   -0.2286   -3.8312    1.1876 C   0  0  0  0  0  0  0  0  0  0  0  0
    0.7706   -4.1122    1.5554 H   0  0  0  0  0  0  0  0  0  0  0  0
    5.6944    2.0228    0.4730 C   0  0  0  0  0  0  0  0  0  0  0  0
   -0.4182   -3.6139   -0.1922 C   0  0  0  0  0  0  0  0  0  0  0  0
   -1.2963   -3.6763    2.0826 C   0  0  0  0  0  0  0  0  0  0  0  0
   -1.1367   -3.8513    3.1579 H   0  0  0  0  0  0  0  0  0  0  0  0
    5.5076   -0.3808    0.3341 C   0  0  0  0  0  0  0  0  0  0  0  0
    5.9379   -1.3874    0.4350 H   0  0  0  0  0  0  0  0  0  0  0  0
    3.6149    1.0243   -0.2349 C   0  0  0  0  0  0  0  0  0  0  0  0
    2.5766    1.1299   -0.5881 H   0  0  0  0  0  0  0  0  0  0  0  0
   -2.5673   -3.2985    1.6124 C   0  0  0  0  0  0  0  0  0  0  0  0
   -3.4015   -3.1687    2.3186 H   0  0  0  0  0  0  0  0  0  0  0  0
   -1.6929   -3.2354   -0.6527 C   0  0  0  0  0  0  0  0  0  0  0  0
   -1.8461   -3.0481   -1.7269 H   0  0  0  0  0  0  0  0  0  0  0  0
    6.2743    0.7562    0.6156 C   0  0  0  0  0  0  0  0  0  0  0  0
    7.3199    0.6777    0.9471 H   0  0  0  0  0  0  0  0  0  0  0  0
    3.3859   -1.4859   -0.3722 C   0  0  0  0  0  0  0  0  0  0  0  0
    4.1619   -0.2706   -0.0881 C   0  0  0  0  0  0  0  0  0  0  0  0
    4.3689    2.1702    0.0465 C   0  0  0  0  0  0  0  0  0  0  0  0
    3.9492    3.1802   -0.0703 H   0  0  0  0  0  0  0  0  0  0  0  0
   -2.7636   -3.0762    0.2415 C   0  0  0  0  0  0  0  0  0  0  0  0
   -3.7481   -2.7624   -0.1373 H   0  0  0  0  0  0  0  0  0  0  0  0
    6.4273    3.1238    0.7455 F   0  0  0  0  0  0  0  0  0  0  0  0
    1.9081   -3.0020   -0.8108 N   0  0  0  0  0  0  0  0  0  0  0  0
    3.9995   -2.7164   -0.4422 N   0  0  0  0  0  0  0  0  0  0  0  0
    3.1136   -3.6311   -0.7099 N   0  0  0  0  0  0  0  0  0  0  0  0
    0.7322   -3.7840   -1.1615 C   0  0  0  0  0  0  0  0  0  0  0  0
    1.0852   -4.8352   -1.1830 H   0  0  0  0  0  0  0  0  0  0  0  0
    0.4027   -3.5172   -2.1872 H   0  0  0  0  0  0  0  0  0  0  0  0
  1 18  2  0  0  0  0
  2  3  1  0  0  0  0
  2  6  1  0  0  0  0
  4 16  1  0  0  0  0
  4 24  1  0  0  0  0
  5  2  2  0  0  0  0
  6  7  1  0  0  0  0
  8  9  1  0  0  0  0
  8 16  2  0  0  0  0
 10 19  2  0  0  0  0
 10 20  1  0  0  0  0
 11 10  1  0  0  0  0
 12  6  2  0  0  0  0
 12 13  1  0  0  0  0
 14  5  1  0  0  0  0
 14 22  2  0  0  0  0
 15 14  1  0  0  0  0
 16 17  1  0  0  0  0
 18 19  1  0  0  0  0
 19  8  1  0  0  0  0
 20  4  2  0  0  0  0
 21 20  1  0  0  0  0
 22 12  1  0  0  0  0
 23 22  1  0  0  0  0
 25 27  1  0  0  0  0
 25  1  1  0  0  0  0
 26 18  1  0  0  0  0
 27 26  2  0  0  0  0
 28 25  1  0  0  0  0
 28  5  1  0  0  0  0
 29 28  1  0  0  0  0
 30 28  1  0  0  0  0
M  END
