11
 OpenBabel05122313113D

 29 28  0  0  0  0  0  0  0  0999 V2000
   -3.7434    0.6259    1.5790 Si  0  0  0  0  0  0  0  0  0  0  0  0
   -4.7879   -0.3971    0.7334 O   0  0  0  0  0  0  0  0  0  0  0  0
   -3.0205   -2.5918   -0.0330 C   0  0  0  0  0  3  0  0  0  0  0  0
   -3.1698   -3.2879    0.8164 H   0  0  0  0  0  0  0  0  0  0  0  0
   -2.2125   -0.3367    2.1217 C   0  0  0  0  0  3  0  0  0  0  0  0
   -2.3794   -1.0942    2.9133 H   0  0  0  0  0  0  0  0  0  0  0  0
   -6.0642   -2.6157   -0.5287 C   0  0  0  0  0  0  0  0  0  0  0  0
   -6.9628   -2.0032   -0.7466 H   0  0  0  0  0  0  0  0  0  0  0  0
   -6.2236   -3.1168    0.4476 H   0  0  0  0  0  0  0  0  0  0  0  0
   -5.9802   -3.3989   -1.3096 H   0  0  0  0  0  0  0  0  0  0  0  0
   -1.9462   -2.9013   -0.9257 C   0  0  0  0  0  3  0  0  0  0  0  0
   -1.9538   -2.5068   -1.9569 H   0  0  0  0  0  0  0  0  0  0  0  0
   -1.3805   -3.8428   -0.8070 H   0  0  0  0  0  0  0  0  0  0  0  0
   -4.2473   -0.6819   -2.1367 C   0  0  0  0  0  0  0  0  0  0  0  0
   -5.0870    0.0106   -2.3501 H   0  0  0  0  0  0  0  0  0  0  0  0
   -4.1953   -1.4175   -2.9658 H   0  0  0  0  0  0  0  0  0  0  0  0
   -3.3124   -0.0882   -2.1436 H   0  0  0  0  0  0  0  0  0  0  0  0
   -0.8745    0.1365    1.9627 C   0  0  0  0  0  3  0  0  0  0  0  0
   -0.0813   -0.1901    2.6583 H   0  0  0  0  0  0  0  0  0  0  0  0
   -0.6850    1.1144    1.4872 H   0  0  0  0  0  0  0  0  0  0  0  0
   -4.5200   -1.5389   -0.4814 Si  0  0  0  0  0  0  0  0  0  0  0  0
   -4.6966    1.2149    3.0913 C   0  0  0  0  0  0  0  0  0  0  0  0
   -4.9893    0.3579    3.7312 H   0  0  0  0  0  0  0  0  0  0  0  0
   -5.6225    1.7454    2.7887 H   0  0  0  0  0  0  0  0  0  0  0  0
   -4.0825    1.9084    3.7015 H   0  0  0  0  0  0  0  0  0  0  0  0
   -3.2314    2.0640    0.4777 C   0  0  0  0  0  0  0  0  0  0  0  0
   -4.1202    2.5911    0.0767 H   0  0  0  0  0  0  0  0  0  0  0  0
   -2.6456    1.6885   -0.3825 H   0  0  0  0  0  0  0  0  0  0  0  0
   -2.6078    2.8043    1.0191 H   0  0  0  0  0  0  0  0  0  0  0  0
  1  5  1  0  0  0  0
  1 22  1  0  0  0  0
  2  1  1  0  0  0  0
  3  4  1  0  0  0  0
  5  6  1  0  0  0  0
  7 21  1  0  0  0  0
  7  9  1  0  0  0  0
  8  7  1  0  0  0  0
 10  7  1  0  0  0  0
 11 13  1  0  0  0  0
 11  3  1  0  0  0  0
 12 11  1  0  0  0  0
 14 21  1  0  0  0  0
 15 14  1  0  0  0  0
 16 14  1  0  0  0  0
 17 14  1  0  0  0  0
 18  5  1  0  0  0  0
 18 19  1  0  0  0  0
 20 18  1  0  0  0  0
 21  3  1  0  0  0  0
 21  2  1  0  0  0  0
 22 25  1  0  0  0  0
 22 23  1  0  0  0  0
 24 22  1  0  0  0  0
 26 29  1  0  0  0  0
 26  1  1  0  0  0  0
 27 26  1  0  0  0  0
 28 26  1  0  0  0  0
M  END
