4
 OpenBabel05122313113D

 24 24  0  0  0  0  0  0  0  0999 V2000
   -4.3654    0.4178   -0.6335 Br  0  0  0  0  0  0  0  0  0  0  0  0
    2.7540   -1.7533   -1.0533 S   0  0  0  0  0  3  0  0  0  0  0  0
    0.9377   -3.2024    0.2433 O   0  0  0  0  0  0  0  0  0  0  0  0
    1.1181   -1.0271   -0.6829 C   0  0  0  0  0  3  0  0  0  0  0  0
    0.6562   -0.6386   -1.6176 H   0  0  0  0  0  0  0  0  0  0  0  0
    0.3709   -2.1298    0.0020 C   0  0  0  0  0  0  0  0  0  0  0  0
   -1.0522   -1.9133    0.4178 C   0  0  0  0  0  0  0  0  0  0  0  0
   -1.8865   -0.9618   -0.2061 C   0  0  0  0  0  0  0  0  0  0  0  0
   -1.5142   -0.3206   -1.0203 H   0  0  0  0  0  0  0  0  0  0  0  0
   -3.2192   -0.8529    0.2139 C   0  0  0  0  0  0  0  0  0  0  0  0
   -3.7339   -1.6544    1.2456 C   0  0  0  0  0  0  0  0  0  0  0  0
   -4.7800   -1.5404    1.5628 H   0  0  0  0  0  0  0  0  0  0  0  0
   -2.8927   -2.5994    1.8550 C   0  0  0  0  0  0  0  0  0  0  0  0
   -3.2878   -3.2312    2.6646 H   0  0  0  0  0  0  0  0  0  0  0  0
   -1.5646   -2.7405    1.4379 C   0  0  0  0  0  0  0  0  0  0  0  0
   -0.8927   -3.4828    1.8915 H   0  0  0  0  0  0  0  0  0  0  0  0
    3.6071   -0.3107   -1.7549 C   0  0  0  0  0  0  0  0  0  0  0  0
    2.9513    0.2304   -2.4627 H   0  0  0  0  0  0  0  0  0  0  0  0
    4.5233   -0.6775   -2.2555 H   0  0  0  0  0  0  0  0  0  0  0  0
    3.8652    0.3223   -0.8850 H   0  0  0  0  0  0  0  0  0  0  0  0
    2.4041   -2.6863   -2.5858 C   0  0  0  0  0  0  0  0  0  0  0  0
    1.7784   -3.5408   -2.2694 H   0  0  0  0  0  0  0  0  0  0  0  0
    3.3641   -3.0549   -2.9945 H   0  0  0  0  0  0  0  0  0  0  0  0
    1.8729   -2.0548   -3.3230 H   0  0  0  0  0  0  0  0  0  0  0  0
  1 10  1  0  0  0  0
  2  4  1  0  0  0  0
  4  6  1  0  0  0  0
  5  4  1  0  0  0  0
  6  3  2  0  0  0  0
  6  7  1  0  0  0  0
  7 15  1  0  0  0  0
  8 10  1  0  0  0  0
  8  7  2  0  0  0  0
  9  8  1  0  0  0  0
 10 11  2  0  0  0  0
 11 12  1  0  0  0  0
 11 13  1  0  0  0  0
 13 14  1  0  0  0  0
 15 13  2  0  0  0  0
 15 16  1  0  0  0  0
 17  2  1  0  0  0  0
 17 20  1  0  0  0  0
 18 17  1  0  0  0  0
 19 17  1  0  0  0  0
 21 22  1  0  0  0  0
 21  2  1  0  0  0  0
 23 21  1  0  0  0  0
 24 21  1  0  0  0  0
M  END
