6
 OpenBabel05122313113D

 26 26  0  0  0  0  0  0  0  0999 V2000
    1.4678    2.7434   -0.0246 S   0  0  0  0  0  3  0  0  0  0  0  0
   -1.0937    3.6197    0.7383 O   0  0  0  0  0  0  0  0  0  0  0  0
   -6.0524   -1.4082   -0.6926 O   0  0  0  0  0  0  0  0  0  0  0  0
   -7.1532    0.2100    0.2871 O   0  0  0  0  0  0  0  0  0  0  0  0
   -6.1474   -0.2628   -0.2371 N   0  0  0  0  0  0  0  0  0  0  0  0
   -0.0385    2.0125   -0.6659 C   0  0  0  0  0  3  0  0  0  0  0  0
   -0.0185    1.9216   -1.7701 H   0  0  0  0  0  0  0  0  0  0  0  0
   -1.2111    2.6608   -0.0333 C   0  0  0  0  0  0  0  0  0  0  0  0
   -2.5490    2.0019   -0.2571 C   0  0  0  0  0  0  0  0  0  0  0  0
   -3.5888    2.3398    0.6316 C   0  0  0  0  0  0  0  0  0  0  0  0
   -3.3968    3.1314    1.3703 H   0  0  0  0  0  0  0  0  0  0  0  0
   -4.7979    1.6370    0.6092 C   0  0  0  0  0  0  0  0  0  0  0  0
   -5.6159    1.8530    1.3097 H   0  0  0  0  0  0  0  0  0  0  0  0
   -4.9418    0.5878   -0.3090 C   0  0  0  0  0  0  0  0  0  0  0  0
   -3.9500    0.2747   -1.2503 C   0  0  0  0  0  0  0  0  0  0  0  0
   -4.1135   -0.5494   -1.9574 H   0  0  0  0  0  0  0  0  0  0  0  0
   -2.7519    0.9937   -1.2283 C   0  0  0  0  0  0  0  0  0  0  0  0
   -1.9546    0.7154   -1.9346 H   0  0  0  0  0  0  0  0  0  0  0  0
    2.7169    1.9632   -1.0902 C   0  0  0  0  0  0  0  0  0  0  0  0
    2.6488    2.3698   -2.1163 H   0  0  0  0  0  0  0  0  0  0  0  0
    2.4832    0.8810   -1.1048 H   0  0  0  0  0  0  0  0  0  0  0  0
    3.7083    2.1502   -0.6359 H   0  0  0  0  0  0  0  0  0  0  0  0
    1.5467    4.4612   -0.6455 C   0  0  0  0  0  0  0  0  0  0  0  0
    2.5476    4.8660   -0.4023 H   0  0  0  0  0  0  0  0  0  0  0  0
    0.7540    5.0005   -0.0970 H   0  0  0  0  0  0  0  0  0  0  0  0
    1.3631    4.4751   -1.7365 H   0  0  0  0  0  0  0  0  0  0  0  0
  3  5  2  0  0  0  0
  5  4  2  0  0  0  0
  6  8  1  0  0  0  0
  6  1  1  0  0  0  0
  7  6  1  0  0  0  0
  8  2  2  0  0  0  0
  9  8  1  0  0  0  0
  9 10  1  0  0  0  0
 10 11  1  0  0  0  0
 12 10  2  0  0  0  0
 12 13  1  0  0  0  0
 14  5  1  0  0  0  0
 14 12  1  0  0  0  0
 15 17  1  0  0  0  0
 15 14  2  0  0  0  0
 16 15  1  0  0  0  0
 17  9  2  0  0  0  0
 18 17  1  0  0  0  0
 19 22  1  0  0  0  0
 19  1  1  0  0  0  0
 20 19  1  0  0  0  0
 21 19  1  0  0  0  0
 23 24  1  0  0  0  0
 23 25  1  0  0  0  0
 23  1  1  0  0  0  0
 26 23  1  0  0  0  0
M  END
