2
 OpenBabel05122313113D

  9  8  0  0  0  0  0  0  0  0999 V2000
    0.2443    0.9086    2.5040 C   0  0  0  0  0  0  0  0  0  0  0  0
   -0.0444   -0.1025    1.6591 C   0  0  0  0  0  3  0  0  0  0  0  0
   -0.5090   -1.4189    2.1090 C   0  0  0  0  0  0  0  0  0  0  0  0
   -1.4851   -1.6059    3.0260 C   0  0  0  0  0  0  0  0  0  0  0  0
    0.5341    1.9122    2.1605 H   0  0  0  0  0  0  0  0  0  0  0  0
    0.2033    0.7391    3.5952 H   0  0  0  0  0  0  0  0  0  0  0  0
   -0.0475   -2.3042    1.6376 H   0  0  0  0  0  0  0  0  0  0  0  0
   -2.0088   -0.7496    3.4814 H   0  0  0  0  0  0  0  0  0  0  0  0
   -1.7858   -2.6174    3.3420 H   0  0  0  0  0  0  0  0  0  0  0  0
  1  6  1  0  0  0  0
  2  3  1  0  0  0  0
  2  1  2  0  0  0  0
  3  4  2  0  0  0  0
  4  9  1  0  0  0  0
  4  8  1  0  0  0  0
  5  1  1  0  0  0  0
  7  3  1  0  0  0  0
M  END
