3
 OpenBabel05122313113D

 30 29  0  0  0  0  0  0  0  0999 V2000
    0.5150   -1.6337    0.0388 C   0  0  0  0  0  3  0  0  0  0  0  0
    0.6430   -2.8342    0.1087 O   0  0  0  0  0  0  0  0  0  0  0  0
   -0.1933   -0.4682   -0.1159 C   0  0  0  0  0  3  0  0  0  0  0  0
   -1.4598    0.0538   -0.2049 C   0  0  0  0  0  0  0  0  0  0  0  0
   -1.5205    1.9171   -0.0073 Si  0  0  0  0  0  0  0  0  0  0  0  0
    0.3187    2.3974   -0.1409 C   0  0  0  0  0  0  0  0  0  0  0  0
   -2.1871    2.3575    1.7114 C   0  0  0  0  0  0  0  0  0  0  0  0
   -2.5083    2.8378   -1.3356 C   0  0  0  0  0  0  0  0  0  0  0  0
   -2.9236   -1.1417   -0.1783 Si  0  0  0  0  0  0  0  0  0  0  0  0
   -2.6004   -2.5821   -1.3622 C   0  0  0  0  0  0  0  0  0  0  0  0
   -3.0981   -1.8123    1.5876 C   0  0  0  0  0  0  0  0  0  0  0  0
   -4.5181   -0.2354   -0.6650 C   0  0  0  0  0  0  0  0  0  0  0  0
    0.5882    3.4417    0.1167 H   0  0  0  0  0  0  0  0  0  0  0  0
    0.6508    2.1996   -1.1756 H   0  0  0  0  0  0  0  0  0  0  0  0
    0.8891    1.7818    0.6298 H   0  0  0  0  0  0  0  0  0  0  0  0
   -2.1657    3.4518    1.8947 H   0  0  0  0  0  0  0  0  0  0  0  0
   -1.5822    1.8583    2.4958 H   0  0  0  0  0  0  0  0  0  0  0  0
   -3.2360    2.0141    1.8259 H   0  0  0  0  0  0  0  0  0  0  0  0
   -2.4222    3.9368   -1.2061 H   0  0  0  0  0  0  0  0  0  0  0  0
   -3.5838    2.5742   -1.2851 H   0  0  0  0  0  0  0  0  0  0  0  0
   -2.1444    2.5799   -2.3511 H   0  0  0  0  0  0  0  0  0  0  0  0
   -3.4411   -3.3064   -1.3480 H   0  0  0  0  0  0  0  0  0  0  0  0
   -1.6768   -3.1185   -1.0626 H   0  0  0  0  0  0  0  0  0  0  0  0
   -2.4710   -2.2240   -2.4040 H   0  0  0  0  0  0  0  0  0  0  0  0
   -3.9479   -2.5214    1.6726 H   0  0  0  0  0  0  0  0  0  0  0  0
   -3.2595   -0.9892    2.3135 H   0  0  0  0  0  0  0  0  0  0  0  0
   -2.1714   -2.3473    1.8803 H   0  0  0  0  0  0  0  0  0  0  0  0
   -5.3851   -0.9272   -0.6300 H   0  0  0  0  0  0  0  0  0  0  0  0
   -4.4536    0.1758   -1.6932 H   0  0  0  0  0  0  0  0  0  0  0  0
   -4.7348    0.6053    0.0265 H   0  0  0  0  0  0  0  0  0  0  0  0
  1  2  2  0  0  0  0
  3  1  1  0  0  0  0
  4  9  1  0  0  0  0
  4  3  2  0  0  0  0
  4  5  1  0  0  0  0
  5  7  1  0  0  0  0
  6  5  1  0  0  0  0
  6 13  1  0  0  0  0
  6 15  1  0  0  0  0
  7 18  1  0  0  0  0
  7 16  1  0  0  0  0
  7 17  1  0  0  0  0
  8 20  1  0  0  0  0
  8 19  1  0  0  0  0
  8  5  1  0  0  0  0
  9 11  1  0  0  0  0
 10 22  1  0  0  0  0
 10 23  1  0  0  0  0
 10  9  1  0  0  0  0
 11 25  1  0  0  0  0
 11 27  1  0  0  0  0
 11 26  1  0  0  0  0
 12 28  1  0  0  0  0
 12  9  1  0  0  0  0
 12 30  1  0  0  0  0
 14  6  1  0  0  0  0
 21  8  1  0  0  0  0
 24 10  1  0  0  0  0
 29 12  1  0  0  0  0
M  END
