10
 OpenBabel05122313113D

 55 57  0  0  0  0  0  0  0  0999 V2000
   -1.2035    1.4811    0.2191 N   0  0  0  0  0  0  0  0  0  0  0  0
    1.1010    1.3502    0.6393 N   0  0  0  0  0  0  0  0  0  0  0  0
   -3.2419    0.5298   -0.8464 C   0  0  0  0  0  0  0  0  0  0  0  0
   -4.4784   -0.1217   -0.6796 C   0  0  0  0  0  0  0  0  0  0  0  0
   -5.0788   -0.3403   -1.5775 H   0  0  0  0  0  0  0  0  0  0  0  0
    3.3015    0.7621   -0.3649 C   0  0  0  0  0  0  0  0  0  0  0  0
   -4.9640   -0.5092    0.5824 C   0  0  0  0  0  0  0  0  0  0  0  0
   -4.1857   -0.1992    1.7125 C   0  0  0  0  0  0  0  0  0  0  0  0
   -4.5557   -0.4689    2.7150 H   0  0  0  0  0  0  0  0  0  0  0  0
   -0.0520    0.7418    0.2471 C   0  0  0  0  0  2  0  0  0  0  0  0
   -1.3541    2.9472    0.0365 C   0  0  0  0  0  0  0  0  0  0  0  0
   -1.6102    3.4354    1.0050 H   0  0  0  0  0  0  0  0  0  0  0  0
   -2.2455    3.0738   -0.6081 H   0  0  0  0  0  0  0  0  0  0  0  0
   -2.4674    0.7856    0.3111 C   0  0  0  0  0  0  0  0  0  0  0  0
   -2.9480    0.4583    1.6013 C   0  0  0  0  0  0  0  0  0  0  0  0
   -6.2662   -1.2575    0.7175 C   0  0  0  0  0  0  0  0  0  0  0  0
   -6.9780   -0.9885   -0.0877 H   0  0  0  0  0  0  0  0  0  0  0  0
   -6.7535   -1.0595    1.6926 H   0  0  0  0  0  0  0  0  0  0  0  0
   -6.1010   -2.3548    0.6526 H   0  0  0  0  0  0  0  0  0  0  0  0
   -2.7663    0.9163   -2.2188 C   0  0  0  0  0  0  0  0  0  0  0  0
   -3.4355    0.5048   -2.9978 H   0  0  0  0  0  0  0  0  0  0  0  0
   -1.7354    0.5452   -2.4047 H   0  0  0  0  0  0  0  0  0  0  0  0
   -2.7409    2.0190   -2.3545 H   0  0  0  0  0  0  0  0  0  0  0  0
    2.3404    0.6010    0.6579 C   0  0  0  0  0  0  0  0  0  0  0  0
    1.0048    3.8456    0.3564 C   0  0  0  0  0  0  0  0  0  0  0  0
    0.8329    4.7632    0.9593 H   0  0  0  0  0  0  0  0  0  0  0  0
    1.9520    4.0007   -0.1962 H   0  0  0  0  0  0  0  0  0  0  0  0
    3.1378    1.7427   -1.4961 C   0  0  0  0  0  0  0  0  0  0  0  0
    2.0780    1.9801   -1.6861 H   0  0  0  0  0  0  0  0  0  0  0  0
    3.5513    1.3292   -2.4354 H   0  0  0  0  0  0  0  0  0  0  0  0
    3.6900    2.6825   -1.2737 H   0  0  0  0  0  0  0  0  0  0  0  0
    2.6229   -0.1914    1.8012 C   0  0  0  0  0  0  0  0  0  0  0  0
    1.1287    2.6626    1.3160 C   0  0  0  0  0  0  0  0  0  0  0  0
    2.0705    2.7132    1.8949 H   0  0  0  0  0  0  0  0  0  0  0  0
    0.2966    2.6781    2.0517 H   0  0  0  0  0  0  0  0  0  0  0  0
    1.6639   -0.2446    2.9605 C   0  0  0  0  0  0  0  0  0  0  0  0
    1.5762    0.7399    3.4668 H   0  0  0  0  0  0  0  0  0  0  0  0
    1.9916   -0.9820    3.7172 H   0  0  0  0  0  0  0  0  0  0  0  0
    0.6501   -0.5241    2.6172 H   0  0  0  0  0  0  0  0  0  0  0  0
   -2.1650    0.8248    2.8366 C   0  0  0  0  0  0  0  0  0  0  0  0
   -2.0981    1.9268    2.9612 H   0  0  0  0  0  0  0  0  0  0  0  0
   -1.1241    0.4498    2.7943 H   0  0  0  0  0  0  0  0  0  0  0  0
   -2.6427    0.4160    3.7470 H   0  0  0  0  0  0  0  0  0  0  0  0
   -0.1539    3.6195   -0.6228 C   0  0  0  0  0  0  0  0  0  0  0  0
   -0.4824    4.5836   -1.0607 H   0  0  0  0  0  0  0  0  0  0  0  0
    0.1672    2.9815   -1.4732 H   0  0  0  0  0  0  0  0  0  0  0  0
    3.8263   -0.9105    1.8431 C   0  0  0  0  0  0  0  0  0  0  0  0
    4.0370   -1.5394    2.7236 H   0  0  0  0  0  0  0  0  0  0  0  0
    4.4919    0.0124   -0.2783 C   0  0  0  0  0  0  0  0  0  0  0  0
    5.2313    0.1123   -1.0893 H   0  0  0  0  0  0  0  0  0  0  0  0
    4.7682   -0.8437    0.7978 C   0  0  0  0  0  0  0  0  0  0  0  0
    6.0267   -1.6729    0.8383 C   0  0  0  0  0  0  0  0  0  0  0  0
    6.4531   -1.7199    1.8607 H   0  0  0  0  0  0  0  0  0  0  0  0
    6.8029   -1.2734    0.1570 H   0  0  0  0  0  0  0  0  0  0  0  0
    5.8213   -2.7196    0.5262 H   0  0  0  0  0  0  0  0  0  0  0  0
  1 10  1  0  0  0  0
  1 14  1  0  0  0  0
  2 24  1  0  0  0  0
  2 33  1  0  0  0  0
  3  4  2  0  0  0  0
  3 14  1  0  0  0  0
  4  7  1  0  0  0  0
  5  4  1  0  0  0  0
  6 49  2  0  0  0  0
  6 24  1  0  0  0  0
  7 16  1  0  0  0  0
  7  8  2  0  0  0  0
  8  9  1  0  0  0  0
 10  2  1  0  0  0  0
 11  1  1  0  0  0  0
 11 12  1  0  0  0  0
 13 11  1  0  0  0  0
 14 15  2  0  0  0  0
 15  8  1  0  0  0  0
 15 40  1  0  0  0  0
 16 18  1  0  0  0  0
 17 16  1  0  0  0  0
 19 16  1  0  0  0  0
 20  3  1  0  0  0  0
 21 20  1  0  0  0  0
 22 20  1  0  0  0  0
 23 20  1  0  0  0  0
 24 32  2  0  0  0  0
 25 26  1  0  0  0  0
 25 33  1  0  0  0  0
 27 25  1  0  0  0  0
 28 31  1  0  0  0  0
 28  6  1  0  0  0  0
 29 28  1  0  0  0  0
 30 28  1  0  0  0  0
 32 47  1  0  0  0  0
 32 36  1  0  0  0  0
 33 34  1  0  0  0  0
 33 35  1  0  0  0  0
 36 37  1  0  0  0  0
 36 38  1  0  0  0  0
 39 36  1  0  0  0  0
 40 41  1  0  0  0  0
 40 43  1  0  0  0  0
 42 40  1  0  0  0  0
 44 11  1  0  0  0  0
 44 25  1  0  0  0  0
 45 44  1  0  0  0  0
 46 44  1  0  0  0  0
 47 48  1  0  0  0  0
 49 51  1  0  0  0  0
 50 49  1  0  0  0  0
 51 52  1  0  0  0  0
 51 47  2  0  0  0  0
 52 53  1  0  0  0  0
 54 52  1  0  0  0  0
 55 52  1  0  0  0  0
M  END
