2
 OpenBabel05122313113D

 52 54  0  0  0  0  0  0  0  0999 V2000
   -1.3552   -2.2241   -0.1892 N   0  0  0  0  0  0  0  0  0  0  0  0
   -0.1168   -1.6166   -0.1098 C   0  0  0  0  0  2  0  0  0  0  0  0
    0.9535   -2.4651   -0.2101 N   0  0  0  0  0  0  0  0  0  0  0  0
    0.8514   -3.9182   -0.4277 C   0  0  0  0  0  0  0  0  0  0  0  0
    1.7489   -4.2311   -0.9974 H   0  0  0  0  0  0  0  0  0  0  0  0
    0.8945   -4.4518    0.5506 H   0  0  0  0  0  0  0  0  0  0  0  0
   -0.4256   -4.2662   -1.1676 C   0  0  0  0  0  0  0  0  0  0  0  0
   -0.5420   -5.3650   -1.2460 H   0  0  0  0  0  0  0  0  0  0  0  0
   -0.3919   -3.8488   -2.1957 H   0  0  0  0  0  0  0  0  0  0  0  0
   -1.5844   -3.6579   -0.4024 C   0  0  0  0  0  0  0  0  0  0  0  0
   -1.7191   -4.1735    0.5773 H   0  0  0  0  0  0  0  0  0  0  0  0
   -2.5376   -3.7677   -0.9565 H   0  0  0  0  0  0  0  0  0  0  0  0
   -2.5536   -1.4640    0.0641 C   0  0  0  0  0  0  0  0  0  0  0  0
   -3.3631   -1.0439   -1.0250 C   0  0  0  0  0  0  0  0  0  0  0  0
   -4.5346   -0.3197   -0.7388 C   0  0  0  0  0  0  0  0  0  0  0  0
   -5.1537    0.0331   -1.5795 H   0  0  0  0  0  0  0  0  0  0  0  0
   -4.9395   -0.0441    0.5791 C   0  0  0  0  0  0  0  0  0  0  0  0
   -4.1728   -0.5725    1.6328 C   0  0  0  0  0  0  0  0  0  0  0  0
   -4.5037   -0.4193    2.6725 H   0  0  0  0  0  0  0  0  0  0  0  0
   -2.9982   -1.3083    1.4040 C   0  0  0  0  0  0  0  0  0  0  0  0
   -2.3139   -2.0044    2.5515 C   0  0  0  0  0  0  0  0  0  0  0  0
   -2.3978   -1.4116    3.4805 H   0  0  0  0  0  0  0  0  0  0  0  0
   -1.2392   -2.1690    2.3629 H   0  0  0  0  0  0  0  0  0  0  0  0
   -2.7977   -2.9905    2.7296 H   0  0  0  0  0  0  0  0  0  0  0  0
   -6.1546    0.8032    0.8559 C   0  0  0  0  0  0  0  0  0  0  0  0
   -5.8663    1.8704    0.9753 H   0  0  0  0  0  0  0  0  0  0  0  0
   -6.6626    0.4993    1.7925 H   0  0  0  0  0  0  0  0  0  0  0  0
   -6.8883    0.7537    0.0275 H   0  0  0  0  0  0  0  0  0  0  0  0
   -3.0631   -1.4477   -2.4437 C   0  0  0  0  0  0  0  0  0  0  0  0
   -3.3625   -0.6546   -3.1548 H   0  0  0  0  0  0  0  0  0  0  0  0
   -3.6393   -2.3632   -2.7047 H   0  0  0  0  0  0  0  0  0  0  0  0
   -1.9877   -1.6398   -2.6001 H   0  0  0  0  0  0  0  0  0  0  0  0
    2.3064   -2.0256   -0.0255 C   0  0  0  0  0  0  0  0  0  0  0  0
    3.0965   -1.7619   -1.1686 C   0  0  0  0  0  0  0  0  0  0  0  0
    4.4270   -1.3512   -0.9702 C   0  0  0  0  0  0  0  0  0  0  0  0
    5.0473   -1.1203   -1.8513 H   0  0  0  0  0  0  0  0  0  0  0  0
    4.9741   -1.2011    0.3188 C   0  0  0  0  0  0  0  0  0  0  0  0
    4.1546   -1.4779    1.4294 C   0  0  0  0  0  0  0  0  0  0  0  0
    4.5624   -1.3538    2.4456 H   0  0  0  0  0  0  0  0  0  0  0  0
    2.8184   -1.8958    1.2853 C   0  0  0  0  0  0  0  0  0  0  0  0
    1.9377   -2.1065    2.4868 C   0  0  0  0  0  0  0  0  0  0  0  0
    2.5382   -2.1829    3.4130 H   0  0  0  0  0  0  0  0  0  0  0  0
    1.3231   -3.0248    2.3952 H   0  0  0  0  0  0  0  0  0  0  0  0
    1.2275   -1.2564    2.6004 H   0  0  0  0  0  0  0  0  0  0  0  0
    6.4092   -0.7750    0.5053 C   0  0  0  0  0  0  0  0  0  0  0  0
    6.7666   -0.1605   -0.3444 H   0  0  0  0  0  0  0  0  0  0  0  0
    7.0813   -1.6575    0.5754 H   0  0  0  0  0  0  0  0  0  0  0  0
    6.5435   -0.1906    1.4371 H   0  0  0  0  0  0  0  0  0  0  0  0
    2.4942   -1.8311   -2.5463 C   0  0  0  0  0  0  0  0  0  0  0  0
    3.2377   -1.5578   -3.3187 H   0  0  0  0  0  0  0  0  0  0  0  0
    1.6258   -1.1415   -2.6305 H   0  0  0  0  0  0  0  0  0  0  0  0
    2.1179   -2.8481   -2.7870 H   0  0  0  0  0  0  0  0  0  0  0  0
  1  2  1  0  0  0  0
  1 13  1  0  0  0  0
  3  2  1  0  0  0  0
  3 33  1  0  0  0  0
  4  3  1  0  0  0  0
  4  6  1  0  0  0  0
  5  4  1  0  0  0  0
  7  4  1  0  0  0  0
  7 10  1  0  0  0  0
  8  7  1  0  0  0  0
  9  7  1  0  0  0  0
 10  1  1  0  0  0  0
 10 11  1  0  0  0  0
 12 10  1  0  0  0  0
 13 20  1  0  0  0  0
 14 15  1  0  0  0  0
 14 13  2  0  0  0  0
 15 17  2  0  0  0  0
 16 15  1  0  0  0  0
 17 25  1  0  0  0  0
 17 18  1  0  0  0  0
 18 19  1  0  0  0  0
 20 18  2  0  0  0  0
 20 21  1  0  0  0  0
 21 24  1  0  0  0  0
 21 22  1  0  0  0  0
 23 21  1  0  0  0  0
 25 26  1  0  0  0  0
 25 27  1  0  0  0  0
 28 25  1  0  0  0  0
 29 14  1  0  0  0  0
 30 29  1  0  0  0  0
 31 29  1  0  0  0  0
 32 29  1  0  0  0  0
 33 40  1  0  0  0  0
 34 35  1  0  0  0  0
 34 33  2  0  0  0  0
 35 37  2  0  0  0  0
 36 35  1  0  0  0  0
 37 45  1  0  0  0  0
 37 38  1  0  0  0  0
 38 39  1  0  0  0  0
 40 38  2  0  0  0  0
 40 41  1  0  0  0  0
 41 44  1  0  0  0  0
 41 42  1  0  0  0  0
 43 41  1  0  0  0  0
 45 47  1  0  0  0  0
 45 48  1  0  0  0  0
 46 45  1  0  0  0  0
 49 34  1  0  0  0  0
 50 49  1  0  0  0  0
 51 49  1  0  0  0  0
 52 49  1  0  0  0  0
M  END
