4
 OpenBabel05122313113D

 23 22  0  0  0  0  0  0  0  0999 V2000
    3.3984   -0.8598   -0.2855 O   0  0  0  0  0  0  0  0  0  0  0  0
    3.6788    0.9683    1.0750 N   0  0  0  0  0  0  0  0  0  0  0  0
    3.3106    1.4819    1.8792 H   0  0  0  0  0  0  0  0  0  0  0  0
    1.8516   -0.6477    1.4977 C   0  0  0  0  0  3  0  0  0  0  0  0
    1.4657    0.0951    2.2255 H   0  0  0  0  0  0  0  0  0  0  0  0
    1.8120   -2.0686    2.0337 C   0  0  0  0  0  0  0  0  0  0  0  0
    0.7578   -2.3352    2.2495 H   0  0  0  0  0  0  0  0  0  0  0  0
    2.1580   -2.7799    1.2581 H   0  0  0  0  0  0  0  0  0  0  0  0
    3.0493   -0.1920    0.7557 C   0  0  0  0  0  0  0  0  0  0  0  0
    2.6494   -2.2250    3.3111 C   0  0  0  0  0  0  0  0  0  0  0  0
    2.5911   -3.2611    3.7022 H   0  0  0  0  0  0  0  0  0  0  0  0
    2.2949   -1.5438    4.1130 H   0  0  0  0  0  0  0  0  0  0  0  0
    3.7190   -1.9955    3.1241 H   0  0  0  0  0  0  0  0  0  0  0  0
    4.5215    1.7056    0.1243 C   0  0  0  0  0  0  0  0  0  0  0  0
    4.9289    0.9285   -0.5535 H   0  0  0  0  0  0  0  0  0  0  0  0
    5.6691    2.3838    0.8724 C   0  0  0  0  0  0  0  0  0  0  0  0
    6.2697    1.6471    1.4416 H   0  0  0  0  0  0  0  0  0  0  0  0
    5.2857    3.1452    1.5858 H   0  0  0  0  0  0  0  0  0  0  0  0
    6.3390    2.9071    0.1623 H   0  0  0  0  0  0  0  0  0  0  0  0
    3.6832    2.6869   -0.7048 C   0  0  0  0  0  0  0  0  0  0  0  0
    3.2599    3.4888   -0.0625 H   0  0  0  0  0  0  0  0  0  0  0  0
    2.8400    2.1798   -1.2164 H   0  0  0  0  0  0  0  0  0  0  0  0
    4.3091    3.1760   -1.4779 H   0  0  0  0  0  0  0  0  0  0  0  0
  1  9  2  0  0  0  0
  2  3  1  0  0  0  0
  4  6  1  0  0  0  0
  4  5  1  0  0  0  0
  6  7  1  0  0  0  0
  6 10  1  0  0  0  0
  8  6  1  0  0  0  0
  9  2  1  0  0  0  0
  9  4  1  0  0  0  0
 10 11  1  0  0  0  0
 10 12  1  0  0  0  0
 13 10  1  0  0  0  0
 14 16  1  0  0  0  0
 14  2  1  0  0  0  0
 15 14  1  0  0  0  0
 16 17  1  0  0  0  0
 16 18  1  0  0  0  0
 19 16  1  0  0  0  0
 20 21  1  0  0  0  0
 20 14  1  0  0  0  0
 22 20  1  0  0  0  0
 23 20  1  0  0  0  0
M  END
