4
 OpenBabel05122313113D

 19 18  0  0  0  0  0  0  0  0999 V2000
    0.8513    2.0671   -0.1263 O   0  0  0  0  0  0  0  0  0  0  0  0
    1.6453   -1.3430   -0.3987 O   0  0  0  0  0  0  0  0  0  0  0  0
    4.1835   -0.0122   -0.2194 O   0  0  0  0  0  0  0  0  0  0  0  0
    0.5379    0.7660   -0.1068 C   0  0  0  0  0  3  0  0  0  0  0  0
    1.7902   -0.0056   -0.1882 C   0  0  0  0  0  0  0  0  0  0  0  0
    3.0099    0.6247   -0.0703 C   0  0  0  0  0  3  0  0  0  0  0  0
   -0.1038    3.1108    0.0432 C   0  0  0  0  0  0  0  0  0  0  0  0
    2.5002   -2.2614    0.2772 C   0  0  0  0  0  0  0  0  0  0  0  0
    5.3499    0.7307    0.1260 C   0  0  0  0  0  0  0  0  0  0  0  0
    3.0382    1.7047    0.1451 H   0  0  0  0  0  0  0  0  0  0  0  0
   -0.5668    3.0669    1.0472 H   0  0  0  0  0  0  0  0  0  0  0  0
   -0.8923    3.0605   -0.7299 H   0  0  0  0  0  0  0  0  0  0  0  0
    0.4635    4.0537   -0.0644 H   0  0  0  0  0  0  0  0  0  0  0  0
    2.5826   -2.0087    1.3565 H   0  0  0  0  0  0  0  0  0  0  0  0
    2.0173   -3.2517    0.1795 H   0  0  0  0  0  0  0  0  0  0  0  0
    3.5135   -2.2927   -0.1703 H   0  0  0  0  0  0  0  0  0  0  0  0
    5.3844    1.6981   -0.4205 H   0  0  0  0  0  0  0  0  0  0  0  0
    5.3899    0.9266    1.2194 H   0  0  0  0  0  0  0  0  0  0  0  0
    6.2202    0.1160   -0.1665 H   0  0  0  0  0  0  0  0  0  0  0  0
  1  4  1  0  0  0  0
  1  7  1  0  0  0  0
  2  5  1  0  0  0  0
  2  8  1  0  0  0  0
  3  6  1  0  0  0  0
  3  9  1  0  0  0  0
  5  4  2  0  0  0  0
  5  6  1  0  0  0  0
  6 10  1  0  0  0  0
  7 11  1  0  0  0  0
  8 14  1  0  0  0  0
  9 18  1  0  0  0  0
 12  7  1  0  0  0  0
 13  7  1  0  0  0  0
 15  8  1  0  0  0  0
 16  8  1  0  0  0  0
 17  9  1  0  0  0  0
 19  9  1  0  0  0  0
M  END
