2
 OpenBabel05122313113D

 18 17  0  0  0  0  0  0  0  0999 V2000
   -2.6786    1.0171    0.7529 N   0  0  0  0  0  2  0  0  0  0  0  0
   -1.6643    0.4613    0.4962 C   0  0  0  0  0  1  0  0  0  0  0  0
   -3.9394    1.6327    0.9293 C   0  0  0  0  0  0  0  0  0  0  0  0
   -3.7875    2.7343    0.9672 H   0  0  0  0  0  0  0  0  0  0  0  0
   -4.3441    1.3259    1.9195 H   0  0  0  0  0  0  0  0  0  0  0  0
   -4.9766    1.2940   -0.1800 C   0  0  0  0  0  0  0  0  0  0  0  0
   -6.2625    2.0565    0.1826 C   0  0  0  0  0  0  0  0  0  0  0  0
   -6.0924    3.1530    0.2085 H   0  0  0  0  0  0  0  0  0  0  0  0
   -6.6565    1.7460    1.1728 H   0  0  0  0  0  0  0  0  0  0  0  0
   -7.0510    1.8570   -0.5702 H   0  0  0  0  0  0  0  0  0  0  0  0
   -4.4518    1.7481   -1.5514 C   0  0  0  0  0  0  0  0  0  0  0  0
   -4.2138    2.8320   -1.5587 H   0  0  0  0  0  0  0  0  0  0  0  0
   -5.2191    1.5652   -2.3306 H   0  0  0  0  0  0  0  0  0  0  0  0
   -3.5416    1.1831   -1.8364 H   0  0  0  0  0  0  0  0  0  0  0  0
   -5.2441   -0.2191   -0.2081 C   0  0  0  0  0  0  0  0  0  0  0  0
   -4.3290   -0.7799   -0.4818 H   0  0  0  0  0  0  0  0  0  0  0  0
   -6.0199   -0.4544   -0.9642 H   0  0  0  0  0  0  0  0  0  0  0  0
   -5.6018   -0.5902    0.7742 H   0  0  0  0  0  0  0  0  0  0  0  0
  1  3  1  0  0  0  0
  2  1  1  0  0  0  0
  3  4  1  0  0  0  0
  3  5  1  0  0  0  0
  6  7  1  0  0  0  0
  6  3  1  0  0  0  0
  7  8  1  0  0  0  0
  7  9  1  0  0  0  0
 10  7  1  0  0  0  0
 11  6  1  0  0  0  0
 12 11  1  0  0  0  0
 13 11  1  0  0  0  0
 14 11  1  0  0  0  0
 15  6  1  0  0  0  0
 15 18  1  0  0  0  0
 16 15  1  0  0  0  0
 17 15  1  0  0  0  0
M  END
