2
 OpenBabel05122313113D

 36 38  0  0  0  0  0  0  0  0999 V2000
    1.6439    0.1345   -0.1839 P   0  0  0  0  0  4  0  0  0  0  0  0
    0.1477   -0.2277   -0.9292 C   0  0  0  0  0  2  0  0  0  0  0  0
    2.9122    0.6922   -1.3944 C   0  0  0  0  0  0  0  0  0  0  0  0
    2.5575    1.7451   -2.2652 C   0  0  0  0  0  0  0  0  0  0  0  0
    3.4759    2.2140   -3.2137 C   0  0  0  0  0  0  0  0  0  0  0  0
    4.7565    1.6411   -3.2992 C   0  0  0  0  0  0  0  0  0  0  0  0
    5.1150    0.5994   -2.4308 C   0  0  0  0  0  0  0  0  0  0  0  0
    4.1981    0.1250   -1.4782 C   0  0  0  0  0  0  0  0  0  0  0  0
    1.6415    1.5126    1.0470 C   0  0  0  0  0  0  0  0  0  0  0  0
    0.4104    2.0528    1.4588 C   0  0  0  0  0  0  0  0  0  0  0  0
    0.3816    3.1346    2.3527 C   0  0  0  0  0  0  0  0  0  0  0  0
    1.5809    3.6839    2.8316 C   0  0  0  0  0  0  0  0  0  0  0  0
    2.8140    3.1578    2.4075 C   0  0  0  0  0  0  0  0  0  0  0  0
    2.8476    2.0787    1.5126 C   0  0  0  0  0  0  0  0  0  0  0  0
    2.4342   -1.2913    0.6837 C   0  0  0  0  0  0  0  0  0  0  0  0
    2.9313   -1.2412    1.9988 C   0  0  0  0  0  0  0  0  0  0  0  0
    3.4842   -2.3914    2.5863 C   0  0  0  0  0  0  0  0  0  0  0  0
    3.5571   -3.5898    1.8608 C   0  0  0  0  0  0  0  0  0  0  0  0
    3.0648   -3.6432    0.5449 C   0  0  0  0  0  0  0  0  0  0  0  0
    2.4955   -2.5025   -0.0371 C   0  0  0  0  0  0  0  0  0  0  0  0
    0.2444    0.0044   -2.0066 H   0  0  0  0  0  0  0  0  0  0  0  0
    1.5555    2.1969   -2.1945 H   0  0  0  0  0  0  0  0  0  0  0  0
    3.1917    3.0347   -3.8897 H   0  0  0  0  0  0  0  0  0  0  0  0
    5.4769    2.0106   -4.0447 H   0  0  0  0  0  0  0  0  0  0  0  0
    6.1172    0.1487   -2.4931 H   0  0  0  0  0  0  0  0  0  0  0  0
    4.4840   -0.6931   -0.8006 H   0  0  0  0  0  0  0  0  0  0  0  0
   -0.5245    1.6363    1.0519 H   0  0  0  0  0  0  0  0  0  0  0  0
   -0.5882    3.5548    2.6599 H   0  0  0  0  0  0  0  0  0  0  0  0
    1.5587    4.5360    3.5282 H   0  0  0  0  0  0  0  0  0  0  0  0
    3.7557    3.5987    2.7687 H   0  0  0  0  0  0  0  0  0  0  0  0
    3.8152    1.6851    1.1630 H   0  0  0  0  0  0  0  0  0  0  0  0
    2.8738   -0.3056    2.5745 H   0  0  0  0  0  0  0  0  0  0  0  0
    3.8566   -2.3489    3.6211 H   0  0  0  0  0  0  0  0  0  0  0  0
    3.9911   -4.4890    2.3239 H   0  0  0  0  0  0  0  0  0  0  0  0
    3.1141   -4.5832   -0.0258 H   0  0  0  0  0  0  0  0  0  0  0  0
    2.0677   -2.5413   -1.0517 H   0  0  0  0  0  0  0  0  0  0  0  0
  1 15  1  0  0  0  0
  1  9  1  0  0  0  0
  2  1  1  0  0  0  0
  3  1  1  0  0  0  0
  4 22  1  0  0  0  0
  4  3  2  0  0  0  0
  5  4  1  0  0  0  0
  6  5  2  0  0  0  0
  6  7  1  0  0  0  0
  7  8  2  0  0  0  0
  8  3  1  0  0  0  0
  8 26  1  0  0  0  0
  9 10  2  0  0  0  0
  9 14  1  0  0  0  0
 10 11  1  0  0  0  0
 11 28  1  0  0  0  0
 11 12  2  0  0  0  0
 12 29  1  0  0  0  0
 13 30  1  0  0  0  0
 13 12  1  0  0  0  0
 14 13  2  0  0  0  0
 15 16  1  0  0  0  0
 16 32  1  0  0  0  0
 16 17  2  0  0  0  0
 17 33  1  0  0  0  0
 18 34  1  0  0  0  0
 18 17  1  0  0  0  0
 19 18  2  0  0  0  0
 20 19  1  0  0  0  0
 20 15  2  0  0  0  0
 21  2  1  0  0  0  0
 23  5  1  0  0  0  0
 24  6  1  0  0  0  0
 25  7  1  0  0  0  0
 27 10  1  0  0  0  0
 31 14  1  0  0  0  0
 35 19  1  0  0  0  0
 36 20  1  0  0  0  0
M  END
