3
 OpenBabel05122313113D

 38 40  0  0  1  0  0  0  0  0999 V2000
   -0.9337    0.1657    0.0806 C   0  0  1  0  0  3  0  0  0  0  0  0
    0.3013    0.8431    0.2576 C   0  0  2  0  0  3  0  0  0  0  0  0
   -0.0840   -0.1783    1.2201 C   0  0  1  0  0  3  0  0  0  0  0  0
   -0.3719   -0.3041    2.6998 C   0  0  0  0  0  0  0  0  0  0  0  0
    0.9232   -0.5498    3.4936 C   0  0  0  0  0  0  0  0  0  0  0  0
   -1.3455   -1.4742    2.9329 C   0  0  0  0  0  0  0  0  0  0  0  0
   -1.0255    1.0171    3.1661 C   0  0  0  0  0  0  0  0  0  0  0  0
   -2.3326    0.4398   -0.2376 C   0  0  0  0  0  0  0  0  0  0  0  0
   -2.7608    1.7769   -0.4112 C   0  0  0  0  0  0  0  0  0  0  0  0
   -4.1090    2.0649   -0.6657 C   0  0  0  0  0  0  0  0  0  0  0  0
   -5.0487    1.0267   -0.7621 C   0  0  0  0  0  0  0  0  0  0  0  0
   -4.6301   -0.3052   -0.6020 C   0  0  0  0  0  0  0  0  0  0  0  0
   -3.2857   -0.5991   -0.3439 C   0  0  0  0  0  0  0  0  0  0  0  0
    0.9568    2.1176    0.0225 C   0  0  0  0  0  0  0  0  0  0  0  0
    0.7207    2.8296   -1.1803 C   0  0  0  0  0  0  0  0  0  0  0  0
    1.3495    4.0574   -1.4146 C   0  0  0  0  0  0  0  0  0  0  0  0
    2.2284    4.6006   -0.4599 C   0  0  0  0  0  0  0  0  0  0  0  0
    2.4745    3.9012    0.7327 C   0  0  0  0  0  0  0  0  0  0  0  0
    1.8491    2.6697    0.9731 C   0  0  0  0  0  0  0  0  0  0  0  0
    1.3778   -1.5203    3.2123 H   0  0  0  0  0  0  0  0  0  0  0  0
    0.7126   -0.5743    4.5825 H   0  0  0  0  0  0  0  0  0  0  0  0
    1.6692    0.2507    3.3104 H   0  0  0  0  0  0  0  0  0  0  0  0
   -1.5929   -1.5623    4.0105 H   0  0  0  0  0  0  0  0  0  0  0  0
   -0.9024   -2.4337    2.6017 H   0  0  0  0  0  0  0  0  0  0  0  0
   -2.2904   -1.3227    2.3743 H   0  0  0  0  0  0  0  0  0  0  0  0
   -1.2683    0.9684    4.2475 H   0  0  0  0  0  0  0  0  0  0  0  0
   -1.9646    1.2127    2.6108 H   0  0  0  0  0  0  0  0  0  0  0  0
   -0.3473    1.8791    3.0036 H   0  0  0  0  0  0  0  0  0  0  0  0
   -2.0249    2.5909   -0.3338 H   0  0  0  0  0  0  0  0  0  0  0  0
   -4.4268    3.1111   -0.7934 H   0  0  0  0  0  0  0  0  0  0  0  0
   -6.1057    1.2536   -0.9681 H   0  0  0  0  0  0  0  0  0  0  0  0
   -5.3592   -1.1256   -0.6849 H   0  0  0  0  0  0  0  0  0  0  0  0
   -2.9602   -1.6433   -0.2357 H   0  0  0  0  0  0  0  0  0  0  0  0
    0.0435    2.3953   -1.9315 H   0  0  0  0  0  0  0  0  0  0  0  0
    1.1544    4.5988   -2.3530 H   0  0  0  0  0  0  0  0  0  0  0  0
    2.7208    5.5666   -0.6470 H   0  0  0  0  0  0  0  0  0  0  0  0
    3.1600    4.3200    1.4854 H   0  0  0  0  0  0  0  0  0  0  0  0
    2.0412    2.1208    1.9074 H   0  0  0  0  0  0  0  0  0  0  0  0
  1  8  1  1  0  0  0
  1  2  1  0  0  0  0
  1  3  1  0  0  0  0
  2 14  1  1  0  0  0
  2  3  1  0  0  0  0
  3  4  1  1  0  0  0
  4  6  1  0  0  0  0
  4  7  1  0  0  0  0
  4  5  1  0  0  0  0
  5 21  1  0  0  0  0
  6 23  1  0  0  0  0
  7 26  1  0  0  0  0
  9 29  1  0  0  0  0
  9  8  2  0  0  0  0
 10  9  1  0  0  0  0
 11 10  2  0  0  0  0
 11 12  1  0  0  0  0
 12 13  2  0  0  0  0
 13  8  1  0  0  0  0
 13 33  1  0  0  0  0
 14 19  1  0  0  0  0
 15 14  2  0  0  0  0
 16 15  1  0  0  0  0
 16 17  2  0  0  0  0
 17 18  1  0  0  0  0
 18 19  2  0  0  0  0
 18 37  1  0  0  0  0
 19 38  1  0  0  0  0
 20  5  1  0  0  0  0
 22  5  1  0  0  0  0
 24  6  1  0  0  0  0
 25  6  1  0  0  0  0
 27  7  1  0  0  0  0
 28  7  1  0  0  0  0
 30 10  1  0  0  0  0
 31 11  1  0  0  0  0
 32 12  1  0  0  0  0
 34 15  1  0  0  0  0
 35 16  1  0  0  0  0
 36 17  1  0  0  0  0
M  END
