1
 OpenBabel05122313113D

 14 14  0  0  0  0  0  0  0  0999 V2000
   -0.0121    1.5835    0.0044 C   0  0  0  0  0  3  0  0  0  0  0  0
   -0.0839    4.4084    0.0027 N   0  0  0  0  0  0  0  0  0  0  0  0
    0.2696    3.7329   -1.1280 C   0  0  0  0  0  3  0  0  0  0  0  0
    0.5162    4.3498   -2.0032 H   0  0  0  0  0  0  0  0  0  0  0  0
   -0.3634    2.3330    1.1602 C   0  0  0  0  0  0  0  0  0  0  0  0
   -0.6369    1.8296    2.0980 H   0  0  0  0  0  0  0  0  0  0  0  0
   -0.3962    3.7169    1.1371 C   0  0  0  0  0  0  0  0  0  0  0  0
   -0.6770    4.3228    2.0099 H   0  0  0  0  0  0  0  0  0  0  0  0
    0.3113    2.3479   -1.1482 C   0  0  0  0  0  0  0  0  0  0  0  0
    0.6186    1.8588   -2.0830 H   0  0  0  0  0  0  0  0  0  0  0  0
   -0.1878    5.8727   -0.0014 C   0  0  0  0  0  0  0  0  0  0  0  0
   -1.2541    6.1733   -0.0250 H   0  0  0  0  0  0  0  0  0  0  0  0
    0.3258    6.2760   -0.8913 H   0  0  0  0  0  0  0  0  0  0  0  0
    0.2888    6.2850    0.9070 H   0  0  0  0  0  0  0  0  0  0  0  0
  1  5  1  0  0  0  0
  2  7  1  0  0  0  0
  3  2  1  0  0  0  0
  4  3  1  0  0  0  0
  5  6  1  0  0  0  0
  7  5  2  0  0  0  0
  7  8  1  0  0  0  0
  9  3  1  0  0  0  0
  9  1  2  0  0  0  0
 10  9  1  0  0  0  0
 11  2  1  0  0  0  0
 11 14  1  0  0  0  0
 12 11  1  0  0  0  0
 13 11  1  0  0  0  0
M  END
