6
 OpenBabel05122313113D

 45 46  0  0  1  0  0  0  0  0999 V2000
   -1.7296   -1.2083   -0.1106 N   0  0  0  0  0  0  0  0  0  0  0  0
    0.1023   -1.7046   -1.1500 N   0  0  0  0  0  0  0  0  0  0  0  0
    3.2162   -0.5128   -0.3337 N   0  0  0  0  0  0  0  0  0  0  0  0
   -2.9867    0.9992   -1.5635 O   0  0  0  0  0  0  0  0  0  0  0  0
    2.4887   -2.6389    0.2235 O   0  0  0  0  0  0  0  0  0  0  0  0
   -0.5805   -0.6528   -0.6021 C   0  0  0  0  0  2  0  0  0  0  0  0
   -1.7552   -2.5797   -0.3383 C   0  0  0  0  0  0  0  0  0  0  0  0
   -2.5851   -3.2191   -0.0291 H   0  0  0  0  0  0  0  0  0  0  0  0
   -0.5815   -2.8941   -0.9780 C   0  0  0  0  0  0  0  0  0  0  0  0
   -0.1752   -3.8561   -1.3017 H   0  0  0  0  0  0  0  0  0  0  0  0
   -2.8157   -0.3967    0.4612 C   0  0  2  0  0  0  0  0  0  0  0  0
   -2.3103    0.4616    0.9536 H   0  0  0  0  0  0  0  0  0  0  0  0
   -3.6376   -1.1711    1.4957 C   0  0  0  0  0  0  0  0  0  0  0  0
   -4.1168   -2.0499    1.0104 H   0  0  0  0  0  0  0  0  0  0  0  0
   -2.9643   -1.5643    2.2851 H   0  0  0  0  0  0  0  0  0  0  0  0
   -4.7389   -0.2844    2.0890 C   0  0  0  0  0  0  0  0  0  0  0  0
   -5.3292   -0.8653    2.8266 H   0  0  0  0  0  0  0  0  0  0  0  0
   -4.2730    0.5558    2.6493 H   0  0  0  0  0  0  0  0  0  0  0  0
   -5.6433    0.2757    0.9843 C   0  0  0  0  0  0  0  0  0  0  0  0
   -6.4176    0.9416    1.4170 H   0  0  0  0  0  0  0  0  0  0  0  0
   -6.1905   -0.5628    0.4981 H   0  0  0  0  0  0  0  0  0  0  0  0
   -4.8251    1.0351   -0.0629 C   0  0  0  0  0  0  0  0  0  0  0  0
   -4.3485    1.9298    0.3936 H   0  0  0  0  0  0  0  0  0  0  0  0
   -5.4622    1.4076   -0.8902 H   0  0  0  0  0  0  0  0  0  0  0  0
   -3.7057    0.1835   -0.6673 C   0  0  1  0  0  0  0  0  0  0  0  0
    1.4600   -1.5743   -1.6647 C   0  0  0  0  0  0  0  0  0  0  0  0
    1.5202   -0.6361   -2.2492 H   0  0  0  0  0  0  0  0  0  0  0  0
    1.6679   -2.4300   -2.3348 H   0  0  0  0  0  0  0  0  0  0  0  0
    2.4585   -1.6305   -0.4823 C   0  0  0  0  0  0  0  0  0  0  0  0
    4.1204   -0.2350    0.8129 C   0  0  0  0  0  0  0  0  0  0  0  0
    4.8178    1.0969    0.4976 C   0  0  0  0  0  0  0  0  0  0  0  0
    5.4311    1.0145   -0.4231 H   0  0  0  0  0  0  0  0  0  0  0  0
    5.4889    1.3761    1.3330 H   0  0  0  0  0  0  0  0  0  0  0  0
    4.0725    1.9093    0.3639 H   0  0  0  0  0  0  0  0  0  0  0  0
    3.2738   -0.0997    2.0934 C   0  0  0  0  0  0  0  0  0  0  0  0
    2.5597    0.7419    1.9869 H   0  0  0  0  0  0  0  0  0  0  0  0
    3.9268    0.1042    2.9656 H   0  0  0  0  0  0  0  0  0  0  0  0
    2.7129   -1.0350    2.2860 H   0  0  0  0  0  0  0  0  0  0  0  0
    5.1559   -1.3637    0.9463 C   0  0  0  0  0  0  0  0  0  0  0  0
    5.7476   -1.4608    0.0136 H   0  0  0  0  0  0  0  0  0  0  0  0
    4.6615   -2.3306    1.1532 H   0  0  0  0  0  0  0  0  0  0  0  0
    5.8532   -1.1293    1.7750 H   0  0  0  0  0  0  0  0  0  0  0  0
   -2.1318    0.5666   -1.7704 H   0  0  0  0  0  0  0  0  0  0  0  0
    2.9292    0.3185   -0.8619 H   0  0  0  0  0  0  0  0  0  0  0  0
   -4.1632   -0.6954   -1.1969 H   0  0  0  0  0  0  0  0  0  0  0  0
  1 11  1  0  0  0  0
  2  9  1  0  0  0  0
  2  6  1  0  0  0  0
  3 30  1  0  0  0  0
  4 25  1  0  0  0  0
  6  1  1  0  0  0  0
  7  1  1  0  0  0  0
  7  8  1  0  0  0  0
  9  7  2  0  0  0  0
 10  9  1  0  0  0  0
 11 12  1  1  0  0  0
 11 13  1  0  0  0  0
 13 16  1  0  0  0  0
 13 15  1  0  0  0  0
 14 13  1  0  0  0  0
 16 18  1  0  0  0  0
 16 17  1  0  0  0  0
 19 20  1  0  0  0  0
 19 16  1  0  0  0  0
 21 19  1  0  0  0  0
 22 23  1  0  0  0  0
 22 19  1  0  0  0  0
 24 22  1  0  0  0  0
 25 45  1  6  0  0  0
 25 22  1  0  0  0  0
 25 11  1  0  0  0  0
 26  2  1  0  0  0  0
 26 29  1  0  0  0  0
 27 26  1  0  0  0  0
 28 26  1  0  0  0  0
 29  3  1  0  0  0  0
 29  5  2  0  0  0  0
 30 39  1  0  0  0  0
 30 35  1  0  0  0  0
 31 30  1  0  0  0  0
 31 33  1  0  0  0  0
 32 31  1  0  0  0  0
 34 31  1  0  0  0  0
 35 38  1  0  0  0  0
 35 37  1  0  0  0  0
 36 35  1  0  0  0  0
 39 41  1  0  0  0  0
 39 42  1  0  0  0  0
 40 39  1  0  0  0  0
 43  4  1  0  0  0  0
 44  3  1  0  0  0  0
M  END
