1
 OpenBabel05122313113D

 71 75  0  0  1  0  0  0  0  0999 V2000
   -0.2818    0.2902   -0.3147 C   0  0  0  0  0  2  0  0  0  0  0  0
   -0.1285    1.5034    0.2663 N   0  0  0  0  0  0  0  0  0  0  0  0
    1.9400    0.9334   -0.7018 C   0  0  2  0  0  0  0  0  0  0  0  0
    2.6330    0.5149    0.0642 H   0  0  0  0  0  0  0  0  0  0  0  0
   -2.3916    2.9025   -1.0168 C   0  0  0  0  0  0  0  0  0  0  0  0
   -1.7470    2.1299   -1.4790 H   0  0  0  0  0  0  0  0  0  0  0  0
    3.8550    2.2507   -1.6486 C   0  0  0  0  0  0  0  0  0  0  0  0
   -2.1810    2.8626    0.4897 C   0  0  0  0  0  0  0  0  0  0  0  0
   -1.0768    2.2029    1.0873 C   0  0  0  0  0  0  0  0  0  0  0  0
    0.8658   -0.0503   -0.9350 N   0  0  0  0  0  0  0  0  0  0  0  0
   -3.0709    3.5535    1.3351 C   0  0  0  0  0  0  0  0  0  0  0  0
   -3.9379    4.0671    0.8933 H   0  0  0  0  0  0  0  0  0  0  0  0
    3.7309    3.6159   -1.9736 C   0  0  0  0  0  0  0  0  0  0  0  0
    2.8379    3.9630   -2.5177 H   0  0  0  0  0  0  0  0  0  0  0  0
   -0.8394    2.2576    2.4885 C   0  0  0  0  0  0  0  0  0  0  0  0
    4.7347    4.5322   -1.6222 C   0  0  0  0  0  0  0  0  0  0  0  0
    4.6227    5.5944   -1.8882 H   0  0  0  0  0  0  0  0  0  0  0  0
   -2.8653    3.6072    2.7172 C   0  0  0  0  0  0  0  0  0  0  0  0
   -3.5730    4.1539    3.3592 H   0  0  0  0  0  0  0  0  0  0  0  0
    0.0335    0.8050    4.3961 C   0  0  0  0  0  0  0  0  0  0  0  0
   -0.7485    0.0542    4.1748 H   0  0  0  0  0  0  0  0  0  0  0  0
   -0.3209    1.4573    5.2209 H   0  0  0  0  0  0  0  0  0  0  0  0
    0.9332    0.2714    4.7652 H   0  0  0  0  0  0  0  0  0  0  0  0
    1.1492    2.1206   -0.1279 C   0  0  0  0  0  0  0  0  0  0  0  0
    1.6496    2.6032    0.7297 H   0  0  0  0  0  0  0  0  0  0  0  0
    0.9610    2.9010   -0.8995 H   0  0  0  0  0  0  0  0  0  0  0  0
    2.7534    1.2652   -1.9614 C   0  0  0  0  0  0  0  0  0  0  0  0
    3.1950    0.3280   -2.3560 H   0  0  0  0  0  0  0  0  0  0  0  0
    2.0678    1.6629   -2.7377 H   0  0  0  0  0  0  0  0  0  0  0  0
   -1.7546    2.9710    3.2832 C   0  0  0  0  0  0  0  0  0  0  0  0
   -1.5958    3.0207    4.3707 H   0  0  0  0  0  0  0  0  0  0  0  0
    5.8786    4.0949   -0.9373 C   0  0  0  0  0  0  0  0  0  0  0  0
    6.6668    4.8120   -0.6623 H   0  0  0  0  0  0  0  0  0  0  0  0
    0.3818    1.6159    3.1384 C   0  0  0  0  0  0  0  0  0  0  0  0
    0.8106    0.9042    2.4030 H   0  0  0  0  0  0  0  0  0  0  0  0
    6.0151    2.7357   -0.6101 C   0  0  0  0  0  0  0  0  0  0  0  0
    6.9126    2.3833   -0.0790 H   0  0  0  0  0  0  0  0  0  0  0  0
    5.0118    1.8222   -0.9629 C   0  0  0  0  0  0  0  0  0  0  0  0
    5.1271    0.7555   -0.7091 H   0  0  0  0  0  0  0  0  0  0  0  0
    1.4431    2.6827    3.4765 C   0  0  0  0  0  0  0  0  0  0  0  0
    2.3653    2.2089    3.8713 H   0  0  0  0  0  0  0  0  0  0  0  0
    1.0618    3.3791    4.2520 H   0  0  0  0  0  0  0  0  0  0  0  0
    1.7242    3.3002    2.5996 H   0  0  0  0  0  0  0  0  0  0  0  0
   -1.9637    4.2696   -1.5823 C   0  0  0  0  0  0  0  0  0  0  0  0
   -0.9092    4.5045   -1.3296 H   0  0  0  0  0  0  0  0  0  0  0  0
   -2.5914    5.0893   -1.1738 H   0  0  0  0  0  0  0  0  0  0  0  0
   -2.0631    4.2817   -2.6871 H   0  0  0  0  0  0  0  0  0  0  0  0
    2.0013   -2.3055    0.7514 C   0  0  0  0  0  0  0  0  0  0  0  0
    1.0115   -2.0697    1.1797 H   0  0  0  0  0  0  0  0  0  0  0  0
    5.8182   -3.2158   -0.9161 C   0  0  0  0  0  0  0  0  0  0  0  0
    6.0067   -3.0214   -1.9838 H   0  0  0  0  0  0  0  0  0  0  0  0
    4.5331   -2.9094   -0.3801 C   0  0  0  0  0  0  0  0  0  0  0  0
    2.2471   -2.0449   -0.6320 C   0  0  0  0  0  0  0  0  0  0  0  0
    3.4896   -2.3481   -1.1742 C   0  0  0  0  0  0  0  0  0  0  0  0
    3.6871   -2.1524   -2.2414 H   0  0  0  0  0  0  0  0  0  0  0  0
    6.8148   -3.7493   -0.1115 C   0  0  0  0  0  0  0  0  0  0  0  0
    7.8022   -3.9815   -0.5386 H   0  0  0  0  0  0  0  0  0  0  0  0
    1.1683   -1.3763   -1.4593 C   0  0  0  0  0  0  0  0  0  0  0  0
    1.4735   -1.3005   -2.5232 H   0  0  0  0  0  0  0  0  0  0  0  0
    0.2162   -1.9440   -1.4314 H   0  0  0  0  0  0  0  0  0  0  0  0
    2.9936   -2.8501    1.5484 C   0  0  0  0  0  0  0  0  0  0  0  0
    2.7951   -3.0518    2.6128 H   0  0  0  0  0  0  0  0  0  0  0  0
    4.2814   -3.1630    1.0180 C   0  0  0  0  0  0  0  0  0  0  0  0
    5.3258   -3.7137    1.8160 C   0  0  0  0  0  0  0  0  0  0  0  0
    5.1294   -3.9080    2.8820 H   0  0  0  0  0  0  0  0  0  0  0  0
    6.5666   -4.0009    1.2649 C   0  0  0  0  0  0  0  0  0  0  0  0
    7.3638   -4.4261    1.8933 H   0  0  0  0  0  0  0  0  0  0  0  0
   -3.8326    2.5568   -1.4181 C   0  0  0  0  0  0  0  0  0  0  0  0
   -4.1356    1.5805   -0.9908 H   0  0  0  0  0  0  0  0  0  0  0  0
   -3.9098    2.4712   -2.5199 H   0  0  0  0  0  0  0  0  0  0  0  0
   -4.5566    3.3290   -1.0835 H   0  0  0  0  0  0  0  0  0  0  0  0
  1  2  1  0  0  0  0
  2  9  1  0  0  0  0
  3 24  1  0  0  0  0
  3  4  1  1  0  0  0
  5  8  1  0  0  0  0
  6  5  1  0  0  0  0
  7 38  1  0  0  0  0
  8  9  2  0  0  0  0
  8 11  1  0  0  0  0
  9 15  1  0  0  0  0
 10  3  1  0  0  0  0
 10  1  1  0  0  0  0
 11 18  2  0  0  0  0
 12 11  1  0  0  0  0
 13  7  2  0  0  0  0
 13 16  1  0  0  0  0
 14 13  1  0  0  0  0
 15 34  1  0  0  0  0
 15 30  2  0  0  0  0
 16 32  2  0  0  0  0
 17 16  1  0  0  0  0
 18 30  1  0  0  0  0
 18 19  1  0  0  0  0
 20 23  1  0  0  0  0
 20 22  1  0  0  0  0
 21 20  1  0  0  0  0
 24  2  1  0  0  0  0
 24 25  1  0  0  0  0
 26 24  1  0  0  0  0
 27  7  1  0  0  0  0
 27  3  1  0  0  0  0
 28 27  1  0  0  0  0
 29 27  1  0  0  0  0
 30 31  1  0  0  0  0
 32 33  1  0  0  0  0
 32 36  1  0  0  0  0
 34 40  1  0  0  0  0
 34 20  1  0  0  0  0
 35 34  1  0  0  0  0
 36 37  1  0  0  0  0
 38 39  1  0  0  0  0
 38 36  2  0  0  0  0
 40 41  1  0  0  0  0
 40 42  1  0  0  0  0
 43 40  1  0  0  0  0
 44 45  1  0  0  0  0
 44 46  1  0  0  0  0
 44  5  1  0  0  0  0
 47 44  1  0  0  0  0
 48 49  1  0  0  0  0
 48 61  1  0  0  0  0
 50 52  1  0  0  0  0
 50 56  2  0  0  0  0
 51 50  1  0  0  0  0
 52 63  1  0  0  0  0
 53 48  2  0  0  0  0
 54 53  1  0  0  0  0
 54 52  2  0  0  0  0
 55 54  1  0  0  0  0
 56 66  1  0  0  0  0
 57 56  1  0  0  0  0
 58 60  1  0  0  0  0
 58 10  1  0  0  0  0
 58 53  1  0  0  0  0
 59 58  1  0  0  0  0
 61 62  1  0  0  0  0
 63 61  2  0  0  0  0
 63 64  1  0  0  0  0
 64 65  1  0  0  0  0
 66 64  2  0  0  0  0
 66 67  1  0  0  0  0
 68 71  1  0  0  0  0
 68  5  1  0  0  0  0
 68 69  1  0  0  0  0
 70 68  1  0  0  0  0
M  END
