4
 OpenBabel05122313113D

 19 18  0  0  0  0  0  0  0  0999 V2000
   -0.6439   -1.6831   -1.2967 C   0  0  0  0  0  3  0  0  0  0  0  0
   -1.8287   -1.7044   -0.5154 C   0  0  0  0  0  0  0  0  0  0  0  0
   -2.7235   -0.5864   -0.3824 C   0  0  0  0  0  0  0  0  0  0  0  0
   -2.5326    0.7344   -0.8755 C   0  0  0  0  0  3  0  0  0  0  0  0
   -1.5593    1.0390   -1.9735 C   0  0  0  0  0  0  0  0  0  0  0  0
   -2.0963   -2.8990    0.3755 C   0  0  0  0  0  0  0  0  0  0  0  0
   -3.5069    1.8159   -0.4786 C   0  0  0  0  0  0  0  0  0  0  0  0
   -0.5768   -1.1957   -2.2770 H   0  0  0  0  0  0  0  0  0  0  0  0
    0.0244   -2.5503   -1.1938 H   0  0  0  0  0  0  0  0  0  0  0  0
   -3.5234   -0.7055    0.3661 H   0  0  0  0  0  0  0  0  0  0  0  0
   -0.4429    0.9100   -1.6673 H   0  0  0  0  0  0  0  0  0  0  0  0
   -1.6614    0.3943   -2.8703 H   0  0  0  0  0  0  0  0  0  0  0  0
   -1.6051    2.1053   -2.2623 H   0  0  0  0  0  0  0  0  0  0  0  0
   -2.7443   -3.6264   -0.1586 H   0  0  0  0  0  0  0  0  0  0  0  0
   -1.1548   -3.4226    0.6308 H   0  0  0  0  0  0  0  0  0  0  0  0
   -2.5996   -2.6174    1.3203 H   0  0  0  0  0  0  0  0  0  0  0  0
   -4.2947    1.9409   -1.2537 H   0  0  0  0  0  0  0  0  0  0  0  0
   -4.0041    1.5774    0.4812 H   0  0  0  0  0  0  0  0  0  0  0  0
   -2.9962    2.7924   -0.3628 H   0  0  0  0  0  0  0  0  0  0  0  0
  1  9  1  0  0  0  0
  1  2  1  0  0  0  0
  2  3  2  0  0  0  0
  2  6  1  0  0  0  0
  3 10  1  0  0  0  0
  4  7  1  0  0  0  0
  4  3  1  0  0  0  0
  5 11  1  0  0  0  0
  5  4  1  0  0  0  0
  6 15  1  0  0  0  0
  6 16  1  0  0  0  0
  7 19  1  0  0  0  0
  7 18  1  0  0  0  0
  8  1  1  0  0  0  0
 12  5  1  0  0  0  0
 13  5  1  0  0  0  0
 14  6  1  0  0  0  0
 17  7  1  0  0  0  0
M  END
