6
 OpenBabel05122313113D

 23 22  0  0  1  0  0  0  0  0999 V2000
   -4.9529   -1.6247    0.0288 Cl  0  0  0  0  0  0  0  0  0  0  0  0
    1.5046   -1.7878   -1.7182 C   0  0  0  0  0  3  0  0  0  0  0  0
    1.1025   -1.4420   -2.6830 H   0  0  0  0  0  0  0  0  0  0  0  0
    2.5224   -2.2141   -1.7416 H   0  0  0  0  0  0  0  0  0  0  0  0
    0.6105   -2.2576   -0.6890 C   0  0  2  0  0  3  0  0  0  0  0  0
   -0.5317   -1.4138   -0.5147 C   0  0  0  0  0  3  0  0  0  0  0  0
   -1.8790   -1.4210   -0.3926 C   0  0  0  0  0  0  0  0  0  0  0  0
   -2.4298   -2.3632   -0.5605 H   0  0  0  0  0  0  0  0  0  0  0  0
   -2.6440   -0.2330   -0.1181 C   0  0  0  0  0  0  0  0  0  0  0  0
   -2.0681    0.7040   -0.0994 H   0  0  0  0  0  0  0  0  0  0  0  0
   -3.9996   -0.1414    0.0602 C   0  0  0  0  0  0  0  0  0  0  0  0
   -4.7319    1.1140    0.2626 C   0  0  0  0  0  0  0  0  0  0  0  0
   -6.0778    1.1596    0.4396 C   0  0  0  0  0  0  0  0  0  0  0  0
   -6.6857    0.2444    0.4437 H   0  0  0  0  0  0  0  0  0  0  0  0
   -6.5902    2.1232    0.5794 H   0  0  0  0  0  0  0  0  0  0  0  0
    0.9355   -3.4051    0.2325 C   0  0  0  0  0  0  0  0  0  0  0  0
    0.5193   -4.3358   -0.2095 H   0  0  0  0  0  0  0  0  0  0  0  0
    0.4750   -3.2780    1.2305 H   0  0  0  0  0  0  0  0  0  0  0  0
    2.0277   -3.5523    0.3444 H   0  0  0  0  0  0  0  0  0  0  0  0
   -3.9120    2.3851    0.2602 C   0  0  0  0  0  0  0  0  0  0  0  0
   -4.5657    3.2703    0.3689 H   0  0  0  0  0  0  0  0  0  0  0  0
   -3.3277    2.4951   -0.6766 H   0  0  0  0  0  0  0  0  0  0  0  0
   -3.1819    2.3970    1.0965 H   0  0  0  0  0  0  0  0  0  0  0  0
  1 11  1  0  0  0  0
  2  5  1  0  0  0  0
  3  2  1  0  0  0  0
  4  2  1  0  0  0  0
  5  6  1  1  0  0  0
  5 16  1  0  0  0  0
  6  7  2  0  0  0  0
  7  9  1  0  0  0  0
  8  7  1  0  0  0  0
  9 10  1  0  0  0  0
  9 11  2  0  0  0  0
 11 12  1  0  0  0  0
 12 13  2  0  0  0  0
 13 14  1  0  0  0  0
 13 15  1  0  0  0  0
 16 19  1  0  0  0  0
 16 18  1  0  0  0  0
 17 16  1  0  0  0  0
 20 12  1  0  0  0  0
 20 21  1  0  0  0  0
 20 23  1  0  0  0  0
 22 20  1  0  0  0  0
M  END
