3
 OpenBabel05122313113D

 21 21  0  0  1  0  0  0  0  0999 V2000
    0.7845   -3.3428    0.7747 Si  0  0  0  0  0  0  0  0  0  0  0  0
    0.4770   -2.0670    2.1407 C   0  0  2  0  0  3  0  0  0  0  0  0
   -0.8353   -1.5044    2.3640 C   0  0  0  0  0  3  0  0  0  0  0  0
   -1.7834   -2.0555    2.3551 H   0  0  0  0  0  0  0  0  0  0  0  0
   -0.6921   -0.0909    2.6202 C   0  0  0  0  0  0  0  0  0  0  0  0
   -1.5005    0.6153    2.8493 H   0  0  0  0  0  0  0  0  0  0  0  0
    0.7003    0.2258    2.5728 C   0  0  0  0  0  0  0  0  0  0  0  0
    1.1452    1.2101    2.7625 H   0  0  0  0  0  0  0  0  0  0  0  0
    1.4194   -0.9879    2.2792 C   0  0  0  0  0  3  0  0  0  0  0  0
    2.5054   -1.0759    2.1527 H   0  0  0  0  0  0  0  0  0  0  0  0
    0.2797   -2.1937   -0.6084 C   0  0  0  0  0  3  0  0  0  0  0  0
   -0.6458   -2.4960   -1.1393 H   0  0  0  0  0  0  0  0  0  0  0  0
    1.0758   -2.0774   -1.3708 H   0  0  0  0  0  0  0  0  0  0  0  0
    2.6188   -3.8005    0.7246 C   0  0  0  0  0  0  0  0  0  0  0  0
    2.8164   -4.5248   -0.0925 H   0  0  0  0  0  0  0  0  0  0  0  0
    2.9537   -4.2577    1.6785 H   0  0  0  0  0  0  0  0  0  0  0  0
    3.2398   -2.9029    0.5283 H   0  0  0  0  0  0  0  0  0  0  0  0
   -0.2833   -4.8922    1.0062 C   0  0  0  0  0  0  0  0  0  0  0  0
   -1.3603   -4.6374    1.0833 H   0  0  0  0  0  0  0  0  0  0  0  0
    0.0016   -5.4365    1.9306 H   0  0  0  0  0  0  0  0  0  0  0  0
   -0.1653   -5.5847    0.1469 H   0  0  0  0  0  0  0  0  0  0  0  0
  1 18  1  0  0  0  0
  2  1  1  6  0  0  0
  2  9  1  0  0  0  0
  2  3  1  0  0  0  0
  3  5  1  0  0  0  0
  4  3  1  0  0  0  0
  5  6  1  0  0  0  0
  7  5  2  0  0  0  0
  7  8  1  0  0  0  0
  9  7  1  0  0  0  0
 10  9  1  0  0  0  0
 11  1  1  0  0  0  0
 12 11  1  0  0  0  0
 13 11  1  0  0  0  0
 14  1  1  0  0  0  0
 14 16  1  0  0  0  0
 15 14  1  0  0  0  0
 17 14  1  0  0  0  0
 18 19  1  0  0  0  0
 18 20  1  0  0  0  0
 21 18  1  0  0  0  0
M  END
