3
 OpenBabel05122313113D

 12 11  0  0  0  0  0  0  0  0999 V2000
    1.5018    1.9802   -1.1698 N   0  0  0  0  0  2  0  0  0  0  0  0
    1.6623    3.2421   -1.5074 N   0  0  0  0  0  0  0  0  0  0  0  0
    1.2815    0.8346   -0.9534 C   0  0  0  0  0  1  0  0  0  0  0  0
    1.9402    4.0670   -0.5281 C   0  0  0  0  0  0  0  0  0  0  0  0
    2.0978    3.6352    0.8977 C   0  0  0  0  0  0  0  0  0  0  0  0
    2.1176    5.5029   -0.9002 C   0  0  0  0  0  0  0  0  0  0  0  0
    1.3259    2.8904    1.1957 H   0  0  0  0  0  0  0  0  0  0  0  0
    2.0819    4.4967    1.5897 H   0  0  0  0  0  0  0  0  0  0  0  0
    3.0728    3.1142    1.0221 H   0  0  0  0  0  0  0  0  0  0  0  0
    2.0089    5.6455   -1.9902 H   0  0  0  0  0  0  0  0  0  0  0  0
    3.1164    5.8629   -0.5733 H   0  0  0  0  0  0  0  0  0  0  0  0
    1.3713    6.1296   -0.3668 H   0  0  0  0  0  0  0  0  0  0  0  0
  1  3  1  0  0  0  0
  2  1  1  0  0  0  0
  2  4  2  0  0  0  0
  4  5  1  0  0  0  0
  5  9  1  0  0  0  0
  5  7  1  0  0  0  0
  5  8  1  0  0  0  0
  6 11  1  0  0  0  0
  6  4  1  0  0  0  0
  6 12  1  0  0  0  0
 10  6  1  0  0  0  0
M  END
