1
 OpenBabel05122313113D

 12 12  0  0  0  0  0  0  0  0999 V2000
    0.8965    0.8643   -0.0005 C   0  0  0  0  0  2  0  0  0  0  0  0
    1.1355    2.1774   -0.0002 N   0  0  0  0  0  0  0  0  0  0  0  0
    2.0901    2.5545    0.0004 H   0  0  0  0  0  0  0  0  0  0  0  0
    0.3571    2.8369   -0.0003 H   0  0  0  0  0  0  0  0  0  0  0  0
    3.3185    0.5969    0.0010 O   0  0  0  0  0  0  0  0  0  0  0  0
    2.0597    0.0150   -0.0000 C   0  0  0  0  0  0  0  0  0  0  0  0
    2.2027   -1.3678   -0.0007 C   0  0  0  0  0  0  0  0  0  0  0  0
    1.3701   -2.0800   -0.0014 H   0  0  0  0  0  0  0  0  0  0  0  0
    3.6001   -1.6387   -0.0004 C   0  0  0  0  0  0  0  0  0  0  0  0
    4.0908   -2.6177   -0.0009 H   0  0  0  0  0  0  0  0  0  0  0  0
    4.2263   -0.4069    0.0007 C   0  0  0  0  0  0  0  0  0  0  0  0
    5.2792   -0.1037    0.0014 H   0  0  0  0  0  0  0  0  0  0  0  0
  1  2  1  0  0  0  0
  1  6  1  0  0  0  0
  2  3  1  0  0  0  0
  4  2  1  0  0  0  0
  6  5  1  0  0  0  0
  7  9  1  0  0  0  0
  7  6  2  0  0  0  0
  8  7  1  0  0  0  0
  9 11  2  0  0  0  0
 10  9  1  0  0  0  0
 11  5  1  0  0  0  0
 11 12  1  0  0  0  0
M  END
