1
 OpenBabel05122313113D

 33 35  0  0  1  0  0  0  0  0999 V2000
   -0.6998   -0.1371    0.7485 C   0  0  1  0  0  3  0  0  0  0  0  0
   -0.0849    0.8935    1.5657 C   0  0  0  0  0  0  0  0  0  0  0  0
   -0.6125    1.7474    2.0085 H   0  0  0  0  0  0  0  0  0  0  0  0
    1.3118    0.6233    1.6980 C   0  0  0  0  0  0  0  0  0  0  0  0
    2.8889   -1.3125    0.8248 C   0  0  0  0  0  0  0  0  0  0  0  0
    3.1277   -1.7545    1.8196 H   0  0  0  0  0  0  0  0  0  0  0  0
    3.7234   -0.6162    0.5957 H   0  0  0  0  0  0  0  0  0  0  0  0
    2.7988   -2.4326   -0.2245 C   0  0  0  0  0  0  0  0  0  0  0  0
    3.6765   -3.1036   -0.1296 H   0  0  0  0  0  0  0  0  0  0  0  0
    2.8463   -1.9932   -1.2441 H   0  0  0  0  0  0  0  0  0  0  0  0
    1.4950   -3.2302   -0.0764 C   0  0  0  0  0  0  0  0  0  0  0  0
    1.4317   -3.6331    0.9592 H   0  0  0  0  0  0  0  0  0  0  0  0
    1.4973   -4.1075   -0.7544 H   0  0  0  0  0  0  0  0  0  0  0  0
    0.2585   -2.3608   -0.3667 C   0  0  0  0  0  0  0  0  0  0  0  0
   -0.6744   -2.8817   -0.0655 H   0  0  0  0  0  0  0  0  0  0  0  0
    0.1747   -2.1984   -1.4611 H   0  0  0  0  0  0  0  0  0  0  0  0
    0.3494   -1.0450    0.3669 C   0  0  0  0  0  0  0  0  0  0  0  0
    1.5925   -0.5653    0.9375 C   0  0  0  0  0  0  0  0  0  0  0  0
    2.2872    1.3810    2.5398 C   0  0  0  0  0  0  0  0  0  0  0  0
    2.4189    0.8719    3.5184 H   0  0  0  0  0  0  0  0  0  0  0  0
    3.2842    1.4456    2.0635 H   0  0  0  0  0  0  0  0  0  0  0  0
    1.9358    2.4109    2.7410 H   0  0  0  0  0  0  0  0  0  0  0  0
   -2.1419   -0.2735    0.4652 C   0  0  0  0  0  0  0  0  0  0  0  0
   -2.6096   -0.7195   -0.7912 C   0  0  0  0  0  0  0  0  0  0  0  0
   -1.8852   -0.9140   -1.5951 H   0  0  0  0  0  0  0  0  0  0  0  0
   -3.9812   -0.8697   -1.0312 C   0  0  0  0  0  0  0  0  0  0  0  0
   -4.3269   -1.2109   -2.0189 H   0  0  0  0  0  0  0  0  0  0  0  0
   -4.9139   -0.5684   -0.0248 C   0  0  0  0  0  0  0  0  0  0  0  0
   -5.9916   -0.6809   -0.2169 H   0  0  0  0  0  0  0  0  0  0  0  0
   -4.4624   -0.1154    1.2243 C   0  0  0  0  0  0  0  0  0  0  0  0
   -5.1855    0.1249    2.0187 H   0  0  0  0  0  0  0  0  0  0  0  0
   -3.0892    0.0282    1.4683 C   0  0  0  0  0  0  0  0  0  0  0  0
   -2.7392    0.3659    2.4557 H   0  0  0  0  0  0  0  0  0  0  0  0
  1 23  1  1  0  0  0
  1  2  1  0  0  0  0
  2  4  2  0  0  0  0
  2  3  1  0  0  0  0
  4 19  1  0  0  0  0
  5 18  1  0  0  0  0
  5  6  1  0  0  0  0
  7  5  1  0  0  0  0
  8  9  1  0  0  0  0
  8 11  1  0  0  0  0
  8  5  1  0  0  0  0
 10  8  1  0  0  0  0
 11 12  1  0  0  0  0
 13 11  1  0  0  0  0
 14 11  1  0  0  0  0
 14 15  1  0  0  0  0
 14 17  1  0  0  0  0
 16 14  1  0  0  0  0
 17  1  1  0  0  0  0
 17 18  2  0  0  0  0
 18  4  1  0  0  0  0
 19 22  1  0  0  0  0
 19 20  1  0  0  0  0
 21 19  1  0  0  0  0
 23 32  1  0  0  0  0
 24 23  2  0  0  0  0
 25 24  1  0  0  0  0
 26 24  1  0  0  0  0
 26 28  2  0  0  0  0
 27 26  1  0  0  0  0
 28 30  1  0  0  0  0
 29 28  1  0  0  0  0
 30 32  2  0  0  0  0
 30 31  1  0  0  0  0
 32 33  1  0  0  0  0
M  END
