26
 OpenBabel05122313113D

 43 45  0  0  0  0  0  0  0  0999 V2000
   -1.7617   -2.1004    0.1929 N   0  0  0  0  0  0  0  0  0  0  0  0
    0.3598   -2.6103   -0.0292 N   0  0  0  0  0  0  0  0  0  0  0  0
   -3.6973   -0.9302   -0.7858 C   0  0  0  0  0  0  0  0  0  0  0  0
   -4.8085   -0.0854   -0.5889 C   0  0  0  0  0  0  0  0  0  0  0  0
   -5.3854    0.2445   -1.4667 H   0  0  0  0  0  0  0  0  0  0  0  0
   -5.1941    0.3125    0.6972 C   0  0  0  0  0  0  0  0  0  0  0  0
   -6.0610    0.9782    0.8290 H   0  0  0  0  0  0  0  0  0  0  0  0
   -4.5029   -0.1656    1.8184 C   0  0  0  0  0  0  0  0  0  0  0  0
   -4.8318    0.1125    2.8316 H   0  0  0  0  0  0  0  0  0  0  0  0
   -3.3821   -1.0034    1.6735 C   0  0  0  0  0  0  0  0  0  0  0  0
   -2.9534   -1.3203    0.3584 C   0  0  0  0  0  0  0  0  0  0  0  0
   -3.3492   -1.4367   -2.1579 C   0  0  0  0  0  0  0  0  0  0  0  0
   -2.3742   -1.0319   -2.5072 H   0  0  0  0  0  0  0  0  0  0  0  0
   -4.1266   -1.1471   -2.8900 H   0  0  0  0  0  0  0  0  0  0  0  0
   -3.2670   -2.5433   -2.1682 H   0  0  0  0  0  0  0  0  0  0  0  0
   -2.6966   -1.5855    2.8808 C   0  0  0  0  0  0  0  0  0  0  0  0
   -2.9424   -1.0073    3.7911 H   0  0  0  0  0  0  0  0  0  0  0  0
   -1.5972   -1.5750    2.7655 H   0  0  0  0  0  0  0  0  0  0  0  0
   -3.0278   -2.6336    3.0518 H   0  0  0  0  0  0  0  0  0  0  0  0
   -1.7737   -3.5679    0.2502 C   0  0  0  0  0  0  0  0  0  0  0  0
   -2.3101   -3.9865   -0.6295 H   0  0  0  0  0  0  0  0  0  0  0  0
   -2.2934   -3.9235    1.1629 H   0  0  0  0  0  0  0  0  0  0  0  0
   -0.2749   -3.9117    0.2446 C   0  0  0  0  0  0  0  0  0  0  0  0
    0.0796   -4.3087    1.2213 H   0  0  0  0  0  0  0  0  0  0  0  0
   -0.0035   -4.6527   -0.5348 H   0  0  0  0  0  0  0  0  0  0  0  0
   -0.5162   -1.5688   -0.0070 C   0  0  0  0  0  2  0  0  0  0  0  0
    2.5408   -2.2483    1.0345 C   0  0  0  0  0  0  0  0  0  0  0  0
    3.9429   -2.2115    0.9084 C   0  0  0  0  0  0  0  0  0  0  0  0
    4.5516   -1.9783    1.7955 H   0  0  0  0  0  0  0  0  0  0  0  0
    4.5620   -2.4563   -0.3246 C   0  0  0  0  0  0  0  0  0  0  0  0
    5.6597   -2.4234   -0.4022 H   0  0  0  0  0  0  0  0  0  0  0  0
    3.7898   -2.7357   -1.4613 C   0  0  0  0  0  0  0  0  0  0  0  0
    4.2783   -2.9156   -2.4316 H   0  0  0  0  0  0  0  0  0  0  0  0
    2.3846   -2.7811   -1.3848 C   0  0  0  0  0  0  0  0  0  0  0  0
    1.7829   -2.5362   -0.1265 C   0  0  0  0  0  0  0  0  0  0  0  0
    1.5354   -3.0027   -2.6072 C   0  0  0  0  0  0  0  0  0  0  0  0
    0.9080   -2.1058   -2.8115 H   0  0  0  0  0  0  0  0  0  0  0  0
    0.8373   -3.8566   -2.4821 H   0  0  0  0  0  0  0  0  0  0  0  0
    2.1627   -3.2056   -3.4957 H   0  0  0  0  0  0  0  0  0  0  0  0
    1.8670   -1.9385    2.3433 C   0  0  0  0  0  0  0  0  0  0  0  0
    2.6019   -1.9029    3.1693 H   0  0  0  0  0  0  0  0  0  0  0  0
    1.0940   -2.6913    2.6014 H   0  0  0  0  0  0  0  0  0  0  0  0
    1.3412   -0.9594    2.3003 H   0  0  0  0  0  0  0  0  0  0  0  0
  1 20  1  0  0  0  0
  1 11  1  0  0  0  0
  2 26  1  0  0  0  0
  2 23  1  0  0  0  0
  3  4  2  0  0  0  0
  3 11  1  0  0  0  0
  4  6  1  0  0  0  0
  5  4  1  0  0  0  0
  6  7  1  0  0  0  0
  6  8  2  0  0  0  0
  8  9  1  0  0  0  0
 10  8  1  0  0  0  0
 10 16  1  0  0  0  0
 11 10  2  0  0  0  0
 12  3  1  0  0  0  0
 13 12  1  0  0  0  0
 14 12  1  0  0  0  0
 15 12  1  0  0  0  0
 16 19  1  0  0  0  0
 16 17  1  0  0  0  0
 18 16  1  0  0  0  0
 20 22  1  0  0  0  0
 21 20  1  0  0  0  0
 23 20  1  0  0  0  0
 23 24  1  0  0  0  0
 25 23  1  0  0  0  0
 26  1  1  0  0  0  0
 27 40  1  0  0  0  0
 28 27  1  0  0  0  0
 28 29  1  0  0  0  0
 30 28  2  0  0  0  0
 31 30  1  0  0  0  0
 32 34  2  0  0  0  0
 32 30  1  0  0  0  0
 33 32  1  0  0  0  0
 34 35  1  0  0  0  0
 35  2  1  0  0  0  0
 35 27  2  0  0  0  0
 36 38  1  0  0  0  0
 36 34  1  0  0  0  0
 37 36  1  0  0  0  0
 39 36  1  0  0  0  0
 40 42  1  0  0  0  0
 40 41  1  0  0  0  0
 43 40  1  0  0  0  0
M  END
