13
 OpenBabel05122313113D

 30 30  0  0  1  0  0  0  0  0999 V2000
    1.2055    2.6814   -0.6239 O   0  0  0  0  0  0  0  0  0  0  0  0
   -3.6427    0.0841    0.0154 N   0  0  0  0  0  0  0  0  0  0  0  0
    2.4688    3.1869   -0.2091 C   0  0  0  0  0  0  0  0  0  0  0  0
    2.3989    3.7233    0.7622 H   0  0  0  0  0  0  0  0  0  0  0  0
    2.7870    3.8995   -0.9911 H   0  0  0  0  0  0  0  0  0  0  0  0
    3.2181    2.3702   -0.1315 H   0  0  0  0  0  0  0  0  0  0  0  0
    0.6303    1.7039    0.1104 C   0  0  0  0  0  0  0  0  0  0  0  0
   -0.4691    1.0340   -0.5129 C   0  0  0  0  0  3  0  0  0  0  0  0
   -0.7251    1.3323   -1.5367 H   0  0  0  0  0  0  0  0  0  0  0  0
   -1.1746   -0.0027    0.1573 C   0  0  0  0  0  0  0  0  0  0  0  0
   -0.7562   -0.3762    1.4764 C   0  0  0  0  0  0  0  0  0  0  0  0
   -1.2535   -1.2100    1.9892 H   0  0  0  0  0  0  0  0  0  0  0  0
    0.3731    0.2442    2.0658 C   0  0  0  0  0  3  0  0  0  0  0  0
    0.7322   -0.0967    3.0472 H   0  0  0  0  0  0  0  0  0  0  0  0
    1.0732    1.2969    1.3997 C   0  0  0  0  0  0  0  0  0  0  0  0
    1.9536    1.7489    1.8701 H   0  0  0  0  0  0  0  0  0  0  0  0
   -2.4369   -0.6293   -0.4401 C   0  0  2  0  0  0  0  0  0  0  0  0
   -2.5138   -1.6512   -0.0103 H   0  0  0  0  0  0  0  0  0  0  0  0
   -2.4177   -0.7805   -1.9621 C   0  0  0  0  0  0  0  0  0  0  0  0
   -3.3841   -1.2092   -2.2895 H   0  0  0  0  0  0  0  0  0  0  0  0
   -1.6020   -1.4562   -2.2780 H   0  0  0  0  0  0  0  0  0  0  0  0
   -2.2829    0.1832   -2.4915 H   0  0  0  0  0  0  0  0  0  0  0  0
   -3.7580    1.4732   -0.3872 C   0  0  0  0  0  0  0  0  0  0  0  0
   -4.7916    1.8257   -0.1893 H   0  0  0  0  0  0  0  0  0  0  0  0
   -3.5750    1.5837   -1.4736 H   0  0  0  0  0  0  0  0  0  0  0  0
   -3.0603    2.1677    0.1504 H   0  0  0  0  0  0  0  0  0  0  0  0
   -3.9942   -0.1192    1.4060 C   0  0  0  0  0  0  0  0  0  0  0  0
   -3.9635   -1.2007    1.6522 H   0  0  0  0  0  0  0  0  0  0  0  0
   -5.0310    0.2379    1.5808 H   0  0  0  0  0  0  0  0  0  0  0  0
   -3.3342    0.4179    2.1376 H   0  0  0  0  0  0  0  0  0  0  0  0
  1  3  1  0  0  0  0
  1  7  1  0  0  0  0
  2 27  1  0  0  0  0
  3  6  1  0  0  0  0
  3  4  1  0  0  0  0
  5  3  1  0  0  0  0
  7 15  2  0  0  0  0
  8  7  1  0  0  0  0
  8 10  1  0  0  0  0
  9  8  1  0  0  0  0
 10 11  2  0  0  0  0
 11 12  1  0  0  0  0
 11 13  1  0  0  0  0
 13 14  1  0  0  0  0
 15 16  1  0  0  0  0
 15 13  1  0  0  0  0
 17 18  1  1  0  0  0
 17  2  1  0  0  0  0
 17 10  1  0  0  0  0
 19 17  1  0  0  0  0
 20 19  1  0  0  0  0
 21 19  1  0  0  0  0
 22 19  1  0  0  0  0
 23 24  1  0  0  0  0
 23  2  1  0  0  0  0
 23 26  1  0  0  0  0
 25 23  1  0  0  0  0
 27 29  1  0  0  0  0
 27 28  1  0  0  0  0
 27 30  1  0  0  0  0
M  END
