35
 OpenBabel05122313113D

 52 54  0  0  1  0  0  0  0  0999 V2000
   -1.4573    0.1949    0.8450 P   0  0  0  0  0  0  0  0  0  0  0  0
    2.7314   -2.5313   -0.7316 O   0  0  0  0  0  0  0  0  0  0  0  0
   -0.7608   -2.6061    1.0028 N   0  0  0  0  0  0  0  0  0  0  0  0
   -0.0131   -0.0889   -0.3066 C   0  0  0  0  0  0  0  0  0  0  0  0
   -2.8313   -0.6325   -0.0761 C   0  0  0  0  0  0  0  0  0  0  0  0
   -2.7533   -1.0676   -1.4150 C   0  0  0  0  0  0  0  0  0  0  0  0
   -1.8323   -0.8999   -1.9926 H   0  0  0  0  0  0  0  0  0  0  0  0
   -3.8404   -1.7212   -2.0164 C   0  0  0  0  0  0  0  0  0  0  0  0
   -3.7625   -2.0589   -3.0615 H   0  0  0  0  0  0  0  0  0  0  0  0
   -5.0239   -1.9415   -1.2933 C   0  0  0  0  0  0  0  0  0  0  0  0
   -5.8753   -2.4530   -1.7674 H   0  0  0  0  0  0  0  0  0  0  0  0
   -5.1136   -1.5064    0.0389 C   0  0  0  0  0  0  0  0  0  0  0  0
   -6.0372   -1.6745    0.6139 H   0  0  0  0  0  0  0  0  0  0  0  0
   -4.0239   -0.8622    0.6439 C   0  0  0  0  0  0  0  0  0  0  0  0
   -4.0938   -0.5323    1.6930 H   0  0  0  0  0  0  0  0  0  0  0  0
   -1.7872    1.9815    0.4666 C   0  0  0  0  0  0  0  0  0  0  0  0
   -1.0061    2.9301    1.1636 C   0  0  0  0  0  0  0  0  0  0  0  0
   -0.2687    2.5872    1.9056 H   0  0  0  0  0  0  0  0  0  0  0  0
   -1.1570    4.3006    0.9128 C   0  0  0  0  0  0  0  0  0  0  0  0
   -0.5238    5.0255    1.4463 H   0  0  0  0  0  0  0  0  0  0  0  0
   -2.1159    4.7455   -0.0127 C   0  0  0  0  0  0  0  0  0  0  0  0
   -2.2399    5.8222   -0.2046 H   0  0  0  0  0  0  0  0  0  0  0  0
   -2.9204    3.8127   -0.6856 C   0  0  0  0  0  0  0  0  0  0  0  0
   -3.6802    4.1565   -1.4046 H   0  0  0  0  0  0  0  0  0  0  0  0
   -2.7544    2.4372   -0.4534 C   0  0  0  0  0  0  0  0  0  0  0  0
   -3.3779    1.7101   -0.9957 H   0  0  0  0  0  0  0  0  0  0  0  0
    0.8983   -1.1817   -0.0161 C   0  0  0  0  0  0  0  0  0  0  0  0
    1.9670   -1.4322   -0.9342 C   0  0  0  0  0  0  0  0  0  0  0  0
    3.9691   -2.6619   -1.4187 C   0  0  0  0  0  0  0  0  0  0  0  0
    3.8244   -2.7728   -2.5156 H   0  0  0  0  0  0  0  0  0  0  0  0
    4.4365   -3.5841   -1.0275 H   0  0  0  0  0  0  0  0  0  0  0  0
    4.6393   -1.8003   -1.2146 H   0  0  0  0  0  0  0  0  0  0  0  0
    2.2250   -0.5153   -2.0090 C   0  0  0  0  0  3  0  0  0  0  0  0
    3.1106   -0.6482   -2.6415 H   0  0  0  0  0  0  0  0  0  0  0  0
    1.3512    0.5654   -2.2604 C   0  0  0  0  0  3  0  0  0  0  0  0
    1.5652    1.2652   -3.0796 H   0  0  0  0  0  0  0  0  0  0  0  0
    0.2260    0.7695   -1.4110 C   0  0  0  0  0  0  0  0  0  0  0  0
   -0.4359    1.6305   -1.5769 H   0  0  0  0  0  0  0  0  0  0  0  0
    0.5695   -2.0222    1.2222 C   0  0  2  0  0  0  0  0  0  0  0  0
    0.4038   -1.2658    2.0214 H   0  0  0  0  0  0  0  0  0  0  0  0
   -0.8569   -3.5844   -0.0608 C   0  0  0  0  0  0  0  0  0  0  0  0
   -0.3540   -3.2056   -0.9732 H   0  0  0  0  0  0  0  0  0  0  0  0
   -1.9244   -3.7505   -0.3135 H   0  0  0  0  0  0  0  0  0  0  0  0
   -0.4043   -4.5771    0.1929 H   0  0  0  0  0  0  0  0  0  0  0  0
   -1.4704   -2.9844    2.2067 C   0  0  0  0  0  0  0  0  0  0  0  0
   -1.0734   -3.9080    2.7003 H   0  0  0  0  0  0  0  0  0  0  0  0
   -2.5376   -3.1662    1.9603 H   0  0  0  0  0  0  0  0  0  0  0  0
   -1.4296   -2.1507    2.9373 H   0  0  0  0  0  0  0  0  0  0  0  0
    1.6385   -2.9867    1.7514 C   0  0  0  0  0  0  0  0  0  0  0  0
    1.3206   -3.3649    2.7436 H   0  0  0  0  0  0  0  0  0  0  0  0
    2.6048   -2.4638    1.8817 H   0  0  0  0  0  0  0  0  0  0  0  0
    1.8077   -3.8496    1.0825 H   0  0  0  0  0  0  0  0  0  0  0  0
  3 39  1  0  0  0  0
  3 45  1  0  0  0  0
  4 27  1  0  0  0  0
  4  1  1  0  0  0  0
  5 14  1  0  0  0  0
  5  1  1  0  0  0  0
  6  5  2  0  0  0  0
  7  6  1  0  0  0  0
  8  6  1  0  0  0  0
  8 10  2  0  0  0  0
  9  8  1  0  0  0  0
 10 12  1  0  0  0  0
 11 10  1  0  0  0  0
 12 13  1  0  0  0  0
 12 14  2  0  0  0  0
 14 15  1  0  0  0  0
 16  1  1  0  0  0  0
 16 17  1  0  0  0  0
 17 18  1  0  0  0  0
 19 17  2  0  0  0  0
 19 20  1  0  0  0  0
 21 19  1  0  0  0  0
 22 21  1  0  0  0  0
 23 25  1  0  0  0  0
 23 21  2  0  0  0  0
 24 23  1  0  0  0  0
 25 16  2  0  0  0  0
 26 25  1  0  0  0  0
 27 39  1  0  0  0  0
 28  2  1  0  0  0  0
 28 27  2  0  0  0  0
 29 32  1  0  0  0  0
 29 31  1  0  0  0  0
 29  2  1  0  0  0  0
 30 29  1  0  0  0  0
 33 28  1  0  0  0  0
 34 33  1  0  0  0  0
 35 33  1  0  0  0  0
 35 37  1  0  0  0  0
 36 35  1  0  0  0  0
 37  4  2  0  0  0  0
 38 37  1  0  0  0  0
 39 49  1  0  0  0  0
 39 40  1  1  0  0  0
 41 44  1  0  0  0  0
 41  3  1  0  0  0  0
 42 41  1  0  0  0  0
 43 41  1  0  0  0  0
 45 46  1  0  0  0  0
 45 48  1  0  0  0  0
 47 45  1  0  0  0  0
 49 51  1  0  0  0  0
 49 50  1  0  0  0  0
 52 49  1  0  0  0  0
M  END
