6
 OpenBabel05122313113D

 25 26  0  0  1  0  0  0  0  0999 V2000
   -1.6671   -0.6197    0.9763 C   0  0  1  0  0  0  0  0  0  0  0  0
   -2.8352   -1.1869    0.1217 C   0  0  0  0  0  0  0  0  0  0  0  0
   -2.7161   -0.7572   -1.3459 C   0  0  0  0  0  0  0  0  0  0  0  0
   -1.4514    0.1230   -1.5259 C   0  0  2  0  0  0  0  0  0  0  0  0
   -0.2898   -0.7463   -1.0602 C   0  0  2  0  0  3  0  0  0  0  0  0
   -0.4135   -1.1536    0.3037 C   0  0  1  0  0  3  0  0  0  0  0  0
   -1.7517    0.8952    0.8208 C   0  0  0  0  0  0  0  0  0  0  0  0
   -1.5890    1.3211   -0.5936 C   0  0  0  0  0  0  0  0  0  0  0  0
    0.8773   -1.1621   -1.7796 C   0  0  0  0  0  3  0  0  0  0  0  0
    0.6364   -1.9517    0.8649 C   0  0  0  0  0  3  0  0  0  0  0  0
   -1.9806    1.7033    1.8794 C   0  0  0  0  0  0  0  0  0  0  0  0
   -1.5773    2.5930   -1.0462 C   0  0  0  0  0  0  0  0  0  0  0  0
   -3.7291   -1.8736    0.5698 O   0  0  0  0  0  0  0  0  0  0  0  0
   -1.7755   -0.9503    2.0232 H   0  0  0  0  0  0  0  0  0  0  0  0
   -2.6725   -1.6695   -1.9765 H   0  0  0  0  0  0  0  0  0  0  0  0
   -3.6408   -0.2119   -1.6255 H   0  0  0  0  0  0  0  0  0  0  0  0
   -1.3236    0.4454   -2.5757 H   0  0  0  0  0  0  0  0  0  0  0  0
    1.0781   -0.6841   -2.7517 H   0  0  0  0  0  0  0  0  0  0  0  0
    1.2225   -2.2060   -1.7053 H   0  0  0  0  0  0  0  0  0  0  0  0
    0.6483   -2.0876    1.9579 H   0  0  0  0  0  0  0  0  0  0  0  0
    1.0340   -2.8069    0.2949 H   0  0  0  0  0  0  0  0  0  0  0  0
   -2.0967    1.2913    2.8926 H   0  0  0  0  0  0  0  0  0  0  0  0
   -2.0435    2.7964    1.7690 H   0  0  0  0  0  0  0  0  0  0  0  0
   -1.4519    2.8110   -2.1174 H   0  0  0  0  0  0  0  0  0  0  0  0
   -1.6728    3.4537   -0.3672 H   0  0  0  0  0  0  0  0  0  0  0  0
  1 14  1  1  0  0  0
  2 13  2  0  0  0  0
  2  1  1  0  0  0  0
  3  2  1  0  0  0  0
  4 17  1  6  0  0  0
  4  3  1  0  0  0  0
  4  5  1  0  0  0  0
  4  8  1  0  0  0  0
  5  9  1  1  0  0  0
  5  6  1  0  0  0  0
  6 10  1  1  0  0  0
  6  1  1  0  0  0  0
  7  1  1  0  0  0  0
  7 11  2  0  0  0  0
  8  7  1  0  0  0  0
  9 19  1  0  0  0  0
 10 20  1  0  0  0  0
 11 22  1  0  0  0  0
 12  8  2  0  0  0  0
 12 25  1  0  0  0  0
 15  3  1  0  0  0  0
 16  3  1  0  0  0  0
 18  9  1  0  0  0  0
 21 10  1  0  0  0  0
 23 11  1  0  0  0  0
 24 12  1  0  0  0  0
M  END
