2
 OpenBabel05122313113D

 18 18  0  0  1  0  0  0  0  0999 V2000
    2.3293   -0.1853    0.5296 S   0  0  0  0  0  3  0  0  0  0  0  0
    1.0730    0.9002    0.0439 C   0  0  1  0  0  3  0  0  0  0  0  0
    0.5048    1.1182   -1.2696 C   0  0  0  0  0  0  0  0  0  0  0  0
   -0.6117    1.9859   -1.0944 C   0  0  0  0  0  0  0  0  0  0  0  0
   -0.7599    2.2705    0.3087 C   0  0  0  0  0  0  0  0  0  0  0  0
    0.2609    1.5978    1.0291 C   0  0  0  0  0  0  0  0  0  0  0  0
    3.9040    0.5396   -0.1145 C   0  0  0  0  0  0  0  0  0  0  0  0
    2.2453   -1.6490   -0.5459 C   0  0  0  0  0  0  0  0  0  0  0  0
    0.8800    0.7305   -2.2236 H   0  0  0  0  0  0  0  0  0  0  0  0
   -1.2597    2.3549   -1.8971 H   0  0  0  0  0  0  0  0  0  0  0  0
   -1.5452    2.8917    0.7543 H   0  0  0  0  0  0  0  0  0  0  0  0
    0.4306    1.6130    2.1112 H   0  0  0  0  0  0  0  0  0  0  0  0
    3.8304    0.6771   -1.2095 H   0  0  0  0  0  0  0  0  0  0  0  0
    4.7415   -0.1330    0.1517 H   0  0  0  0  0  0  0  0  0  0  0  0
    4.0214    1.5147    0.3924 H   0  0  0  0  0  0  0  0  0  0  0  0
    1.3837   -2.2441   -0.1973 H   0  0  0  0  0  0  0  0  0  0  0  0
    2.0934   -1.3450   -1.5973 H   0  0  0  0  0  0  0  0  0  0  0  0
    3.1990   -2.1969   -0.4201 H   0  0  0  0  0  0  0  0  0  0  0  0
  2  1  1  1  0  0  0
  2  6  1  0  0  0  0
  3  4  2  0  0  0  0
  3  2  1  0  0  0  0
  4  5  1  0  0  0  0
  5 11  1  0  0  0  0
  5  6  2  0  0  0  0
  6 12  1  0  0  0  0
  7 14  1  0  0  0  0
  7 15  1  0  0  0  0
  7  1  1  0  0  0  0
  8 18  1  0  0  0  0
  8 16  1  0  0  0  0
  8  1  1  0  0  0  0
  9  3  1  0  0  0  0
 10  4  1  0  0  0  0
 13  7  1  0  0  0  0
 17  8  1  0  0  0  0
M  END
