1
 OpenBabel05122313113D

 45 49  0  0  1  0  0  0  0  0999 V2000
   -0.5168    0.5657    0.0171 C   0  0  0  0  0  3  0  0  0  0  0  0
   -1.5993    1.4719    0.0471 C   0  0  0  0  0  0  0  0  0  0  0  0
   -3.0435    1.2028    0.0384 C   0  0  0  0  0  0  0  0  0  0  0  0
   -3.9468    1.9855   -0.7179 C   0  0  0  0  0  0  0  0  0  0  0  0
   -3.5747    2.8072   -1.3466 H   0  0  0  0  0  0  0  0  0  0  0  0
   -5.3169    1.6901   -0.7185 C   0  0  0  0  0  0  0  0  0  0  0  0
   -6.0053    2.3027   -1.3200 H   0  0  0  0  0  0  0  0  0  0  0  0
   -5.8053    0.6058    0.0266 C   0  0  0  0  0  0  0  0  0  0  0  0
   -6.8806    0.3719    0.0208 H   0  0  0  0  0  0  0  0  0  0  0  0
   -4.9144   -0.1874    0.7678 C   0  0  0  0  0  0  0  0  0  0  0  0
   -5.2870   -1.0466    1.3451 H   0  0  0  0  0  0  0  0  0  0  0  0
   -3.5456    0.1055    0.7765 C   0  0  0  0  0  0  0  0  0  0  0  0
   -2.8450   -0.5206    1.3488 H   0  0  0  0  0  0  0  0  0  0  0  0
    0.5814    1.4086    0.0461 N   0  0  0  0  0  0  0  0  0  0  0  0
    2.0210    1.0124    0.0251 C   0  0  1  0  0  0  0  0  0  0  0  0
    2.3101    0.2275   -1.2745 C   0  0  0  0  0  0  0  0  0  0  0  0
    2.0778    0.8734   -2.1481 H   0  0  0  0  0  0  0  0  0  0  0  0
    1.6395   -0.6564   -1.3247 H   0  0  0  0  0  0  0  0  0  0  0  0
    3.7865   -0.2076   -1.2902 C   0  0  1  0  0  0  0  0  0  0  0  0
    3.9770   -0.7782   -2.2230 H   0  0  0  0  0  0  0  0  0  0  0  0
    4.6889    1.0395   -1.2428 C   0  0  0  0  0  0  0  0  0  0  0  0
    4.5051    1.6798   -2.1323 H   0  0  0  0  0  0  0  0  0  0  0  0
    5.7585    0.7414   -1.2740 H   0  0  0  0  0  0  0  0  0  0  0  0
    4.3996    1.8277    0.0486 C   0  0  1  0  0  0  0  0  0  0  0  0
    5.0325    2.7393    0.0824 H   0  0  0  0  0  0  0  0  0  0  0  0
    2.9198    2.2633    0.0715 C   0  0  0  0  0  0  0  0  0  0  0  0
    2.7018    2.8500    0.9871 H   0  0  0  0  0  0  0  0  0  0  0  0
    2.6948    2.9211   -0.7926 H   0  0  0  0  0  0  0  0  0  0  0  0
    4.6984    0.9395    1.2712 C   0  0  0  0  0  0  0  0  0  0  0  0
    5.7681    0.6402    1.2706 H   0  0  0  0  0  0  0  0  0  0  0  0
    4.5214    1.5070    2.2101 H   0  0  0  0  0  0  0  0  0  0  0  0
    3.7960   -0.3075    1.2258 C   0  0  2  0  0  0  0  0  0  0  0  0
    3.9932   -0.9506    2.1088 H   0  0  0  0  0  0  0  0  0  0  0  0
    4.0665   -1.1023   -0.0668 C   0  0  0  0  0  0  0  0  0  0  0  0
    5.1210   -1.4505   -0.0846 H   0  0  0  0  0  0  0  0  0  0  0  0
    3.4222   -2.0059   -0.1001 H   0  0  0  0  0  0  0  0  0  0  0  0
    2.3197    0.1271    1.2560 C   0  0  0  0  0  0  0  0  0  0  0  0
    1.6496   -0.7586    1.2407 H   0  0  0  0  0  0  0  0  0  0  0  0
    2.0942    0.7016    2.1798 H   0  0  0  0  0  0  0  0  0  0  0  0
    0.2820    2.7028    0.0994 N   0  0  0  0  0  2  0  0  0  0  0  0
   -1.0398    2.7326    0.1025 N   0  0  0  0  0  0  0  0  0  0  0  0
   -1.6908    4.0299    0.2105 C   0  0  0  0  0  0  0  0  0  0  0  0
   -0.9983    4.7136    0.7320 H   0  0  0  0  0  0  0  0  0  0  0  0
   -2.6269    3.9172    0.7861 H   0  0  0  0  0  0  0  0  0  0  0  0
   -1.9251    4.4392   -0.7914 H   0  0  0  0  0  0  0  0  0  0  0  0
  1 14  1  0  0  0  0
  1  2  2  0  0  0  0
  2 41  1  0  0  0  0
  3  2  1  0  0  0  0
  3 12  1  0  0  0  0
  4  3  2  0  0  0  0
  5  4  1  0  0  0  0
  6  4  1  0  0  0  0
  6  8  2  0  0  0  0
  7  6  1  0  0  0  0
  8 10  1  0  0  0  0
  9  8  1  0  0  0  0
 10 12  2  0  0  0  0
 10 11  1  0  0  0  0
 12 13  1  0  0  0  0
 14 40  1  0  0  0  0
 15 14  1  1  0  0  0
 15 26  1  0  0  0  0
 15 37  1  0  0  0  0
 16 15  1  0  0  0  0
 17 16  1  0  0  0  0
 18 16  1  0  0  0  0
 19 20  1  6  0  0  0
 19 16  1  0  0  0  0
 19 21  1  0  0  0  0
 19 34  1  0  0  0  0
 21 24  1  0  0  0  0
 22 21  1  0  0  0  0
 23 21  1  0  0  0  0
 24 26  1  0  0  0  0
 24 25  1  1  0  0  0
 24 29  1  0  0  0  0
 26 27  1  0  0  0  0
 28 26  1  0  0  0  0
 29 31  1  0  0  0  0
 30 29  1  0  0  0  0
 32 37  1  0  0  0  0
 32 29  1  0  0  0  0
 32 33  1  1  0  0  0
 34 32  1  0  0  0  0
 35 34  1  0  0  0  0
 36 34  1  0  0  0  0
 37 39  1  0  0  0  0
 38 37  1  0  0  0  0
 40 41  1  0  0  0  0
 41 42  1  0  0  0  0
 42 43  1  0  0  0  0
 42 44  1  0  0  0  0
 45 42  1  0  0  0  0
M  END
