1
 OpenBabel05122313113D

 35 35  0  0  0  0  0  0  0  0999 V2000
    0.6294    0.2015    0.0003 C   0  0  0  0  0  3  0  0  0  0  0  0
    1.7726   -0.6310    0.0005 C   0  0  0  0  0  0  0  0  0  0  0  0
    1.1674    1.4745    0.0003 N   0  0  0  0  0  0  0  0  0  0  0  0
    0.4274    2.7884   -0.0002 C   0  0  0  0  0  0  0  0  0  0  0  0
   -0.4367    2.8478    1.2691 C   0  0  0  0  0  0  0  0  0  0  0  0
   -0.9843    3.8099    1.2920 H   0  0  0  0  0  0  0  0  0  0  0  0
    0.1930    2.7799    2.1784 H   0  0  0  0  0  0  0  0  0  0  0  0
   -1.1770    2.0224    1.2852 H   0  0  0  0  0  0  0  0  0  0  0  0
    1.4473    3.9337   -0.0003 C   0  0  0  0  0  0  0  0  0  0  0  0
    2.0958    3.9072   -0.8961 H   0  0  0  0  0  0  0  0  0  0  0  0
    2.0957    3.9074    0.8957 H   0  0  0  0  0  0  0  0  0  0  0  0
    0.8887    4.8893   -0.0004 H   0  0  0  0  0  0  0  0  0  0  0  0
   -0.4361    2.8470   -1.2700 C   0  0  0  0  0  0  0  0  0  0  0  0
   -0.9831    3.8094   -1.2942 H   0  0  0  0  0  0  0  0  0  0  0  0
   -1.1767    2.0220   -1.2857 H   0  0  0  0  0  0  0  0  0  0  0  0
    0.1941    2.7780   -2.1789 H   0  0  0  0  0  0  0  0  0  0  0  0
    2.4917    1.5045    0.0002 N   0  0  0  0  0  2  0  0  0  0  0  0
    2.8534    0.2282    0.0003 N   0  0  0  0  0  0  0  0  0  0  0  0
    4.2956   -0.0030    0.0008 C   0  0  0  0  0  0  0  0  0  0  0  0
    4.7717    0.9922    0.0018 H   0  0  0  0  0  0  0  0  0  0  0  0
    4.6026   -0.5610   -0.9009 H   0  0  0  0  0  0  0  0  0  0  0  0
    4.6017   -0.5625    0.9017 H   0  0  0  0  0  0  0  0  0  0  0  0
    1.7724   -2.1596   -0.0003 C   0  0  0  0  0  0  0  0  0  0  0  0
    1.0188   -2.6406    1.2634 C   0  0  0  0  0  0  0  0  0  0  0  0
    1.5379   -2.3142    2.1874 H   0  0  0  0  0  0  0  0  0  0  0  0
    0.9638   -3.7480    1.2670 H   0  0  0  0  0  0  0  0  0  0  0  0
   -0.0149   -2.2403    1.2855 H   0  0  0  0  0  0  0  0  0  0  0  0
    3.1698   -2.8081   -0.0000 C   0  0  0  0  0  0  0  0  0  0  0  0
    3.7594   -2.5555    0.9028 H   0  0  0  0  0  0  0  0  0  0  0  0
    3.7600   -2.5550   -0.9022 H   0  0  0  0  0  0  0  0  0  0  0  0
    3.0397   -3.9079   -0.0004 H   0  0  0  0  0  0  0  0  0  0  0  0
    1.0198   -2.6391   -1.2650 C   0  0  0  0  0  0  0  0  0  0  0  0
    0.9648   -3.7465   -1.2700 H   0  0  0  0  0  0  0  0  0  0  0  0
    1.5395   -2.3115   -2.1883 H   0  0  0  0  0  0  0  0  0  0  0  0
   -0.0139   -2.2388   -1.2873 H   0  0  0  0  0  0  0  0  0  0  0  0
  1  2  2  0  0  0  0
  3  1  1  0  0  0  0
  4  3  1  0  0  0  0
  4  5  1  0  0  0  0
  5  8  1  0  0  0  0
  5  6  1  0  0  0  0
  5  7  1  0  0  0  0
  9  4  1  0  0  0  0
  9 11  1  0  0  0  0
 10  9  1  0  0  0  0
 12  9  1  0  0  0  0
 13  4  1  0  0  0  0
 14 13  1  0  0  0  0
 15 13  1  0  0  0  0
 16 13  1  0  0  0  0
 17  3  1  0  0  0  0
 17 18  1  0  0  0  0
 18  2  1  0  0  0  0
 18 19  1  0  0  0  0
 19 20  1  0  0  0  0
 19 22  1  0  0  0  0
 21 19  1  0  0  0  0
 23 28  1  0  0  0  0
 23  2  1  0  0  0  0
 23 24  1  0  0  0  0
 24 26  1  0  0  0  0
 24 27  1  0  0  0  0
 24 25  1  0  0  0  0
 28 29  1  0  0  0  0
 30 28  1  0  0  0  0
 31 28  1  0  0  0  0
 32 23  1  0  0  0  0
 33 32  1  0  0  0  0
 34 32  1  0  0  0  0
 35 32  1  0  0  0  0
M  END
