1
 OpenBabel05122313113D

 69 73  0  0  0  0  0  0  0  0999 V2000
    0.0006    0.1881   -0.0001 C   0  0  0  0  0  2  0  0  0  0  0  0
    1.1222   -0.5090    0.3291 N   0  0  0  0  0  0  0  0  0  0  0  0
   -1.1254   -0.5020   -0.3294 N   0  0  0  0  0  0  0  0  0  0  0  0
    2.3790    0.2052    0.3137 C   0  0  0  0  0  0  0  0  0  0  0  0
    2.9033    0.7408    1.5141 C   0  0  0  0  0  0  0  0  0  0  0  0
    4.1513    1.3851    1.4572 C   0  0  0  0  0  0  0  0  0  0  0  0
    4.5632    1.8168    2.3836 H   0  0  0  0  0  0  0  0  0  0  0  0
    4.8697    1.5212    0.2558 C   0  0  0  0  0  0  0  0  0  0  0  0
    4.2995    1.0023   -0.9211 C   0  0  0  0  0  0  0  0  0  0  0  0
    4.8347    1.1188   -1.8773 H   0  0  0  0  0  0  0  0  0  0  0  0
    3.0548    0.3504   -0.9208 C   0  0  0  0  0  0  0  0  0  0  0  0
    2.1216    0.6953    2.8015 C   0  0  0  0  0  0  0  0  0  0  0  0
    2.1034   -0.3160    3.2615 H   0  0  0  0  0  0  0  0  0  0  0  0
    1.0686    0.9989    2.6252 H   0  0  0  0  0  0  0  0  0  0  0  0
    2.5562    1.3869    3.5471 H   0  0  0  0  0  0  0  0  0  0  0  0
    6.1854    2.2566    0.2189 C   0  0  0  0  0  0  0  0  0  0  0  0
    6.8486    1.8696   -0.5796 H   0  0  0  0  0  0  0  0  0  0  0  0
    6.7234    2.1835    1.1844 H   0  0  0  0  0  0  0  0  0  0  0  0
    6.0245    3.3371    0.0148 H   0  0  0  0  0  0  0  0  0  0  0  0
    2.4350   -0.1359   -2.2044 C   0  0  0  0  0  0  0  0  0  0  0  0
    3.1395   -0.0320   -3.0508 H   0  0  0  0  0  0  0  0  0  0  0  0
    1.5261    0.4576   -2.4413 H   0  0  0  0  0  0  0  0  0  0  0  0
    2.1254   -1.1987   -2.1385 H   0  0  0  0  0  0  0  0  0  0  0  0
   -2.3776    0.2202   -0.3143 C   0  0  0  0  0  0  0  0  0  0  0  0
   -2.8986    0.7583   -1.5146 C   0  0  0  0  0  0  0  0  0  0  0  0
   -4.1429    1.4106   -1.4579 C   0  0  0  0  0  0  0  0  0  0  0  0
   -4.5522    1.8443   -2.3843 H   0  0  0  0  0  0  0  0  0  0  0  0
   -4.8601    1.5517   -0.2566 C   0  0  0  0  0  0  0  0  0  0  0  0
   -4.2928    1.0298    0.9207 C   0  0  0  0  0  0  0  0  0  0  0  0
   -4.8269    1.1502    1.8770 H   0  0  0  0  0  0  0  0  0  0  0  0
   -3.0525    0.3701    0.9205 C   0  0  0  0  0  0  0  0  0  0  0  0
   -2.1177    0.7073   -2.8022 C   0  0  0  0  0  0  0  0  0  0  0  0
   -2.5471    1.4028   -3.5473 H   0  0  0  0  0  0  0  0  0  0  0  0
   -2.1079   -0.3038   -3.2629 H   0  0  0  0  0  0  0  0  0  0  0  0
   -1.0622    1.0024   -2.6262 H   0  0  0  0  0  0  0  0  0  0  0  0
   -6.1718    2.2939   -0.2179 C   0  0  0  0  0  0  0  0  0  0  0  0
   -6.0118    3.3585    0.0579 H   0  0  0  0  0  0  0  0  0  0  0  0
   -6.8629    1.8643    0.5343 H   0  0  0  0  0  0  0  0  0  0  0  0
   -6.6788    2.2830   -1.2025 H   0  0  0  0  0  0  0  0  0  0  0  0
   -2.4354   -0.1197    2.2040 C   0  0  0  0  0  0  0  0  0  0  0  0
   -3.1387   -0.0104    3.0508 H   0  0  0  0  0  0  0  0  0  0  0  0
   -1.5223    0.4676    2.4401 H   0  0  0  0  0  0  0  0  0  0  0  0
   -2.1332   -1.1846    2.1385 H   0  0  0  0  0  0  0  0  0  0  0  0
    1.1267   -1.8448    0.9658 C   0  0  0  0  0  0  0  0  0  0  0  0
    0.1154   -2.0255    1.3730 H   0  0  0  0  0  0  0  0  0  0  0  0
    1.8104   -1.7607    1.8341 H   0  0  0  0  0  0  0  0  0  0  0  0
    1.5887   -3.0182    0.1246 C   0  0  0  0  0  0  0  0  0  0  0  0
    0.7022   -4.0756   -0.2112 C   0  0  0  0  0  0  0  0  0  0  0  0
    1.2003   -5.1788   -0.9395 C   0  0  0  0  0  0  0  0  0  0  0  0
    0.5092   -5.9941   -1.2024 H   0  0  0  0  0  0  0  0  0  0  0  0
    2.5392   -5.2357   -1.3455 C   0  0  0  0  0  0  0  0  0  0  0  0
    2.9014   -6.0999   -1.9225 H   0  0  0  0  0  0  0  0  0  0  0  0
    3.4136   -4.1900   -1.0104 C   0  0  0  0  0  0  0  0  0  0  0  0
    4.4699   -4.2283   -1.3161 H   0  0  0  0  0  0  0  0  0  0  0  0
    2.9393   -3.0996   -0.2699 C   0  0  0  0  0  0  0  0  0  0  0  0
    3.6279   -2.2892    0.0151 H   0  0  0  0  0  0  0  0  0  0  0  0
   -1.1382   -1.8378   -0.9658 C   0  0  0  0  0  0  0  0  0  0  0  0
   -0.1280   -2.0250   -1.3729 H   0  0  0  0  0  0  0  0  0  0  0  0
   -1.8212   -1.7496   -1.8342 H   0  0  0  0  0  0  0  0  0  0  0  0
   -1.6075   -3.0081   -0.1244 C   0  0  0  0  0  0  0  0  0  0  0  0
   -0.7278   -4.0710    0.2116 C   0  0  0  0  0  0  0  0  0  0  0  0
   -1.2328   -5.1708    0.9402 C   0  0  0  0  0  0  0  0  0  0  0  0
   -0.5470   -5.9904    1.2033 H   0  0  0  0  0  0  0  0  0  0  0  0
   -2.5721   -5.2192    1.3462 C   0  0  0  0  0  0  0  0  0  0  0  0
   -2.9398   -6.0809    1.9235 H   0  0  0  0  0  0  0  0  0  0  0  0
   -3.4398   -4.1681    1.0109 C   0  0  0  0  0  0  0  0  0  0  0  0
   -4.4964   -4.1995    1.3167 H   0  0  0  0  0  0  0  0  0  0  0  0
   -2.9587   -3.0808    0.2702 C   0  0  0  0  0  0  0  0  0  0  0  0
   -3.6421   -2.2661   -0.0149 H   0  0  0  0  0  0  0  0  0  0  0  0
  1  2  1  0  0  0  0
  2 44  1  0  0  0  0
  3 24  1  0  0  0  0
  3  1  1  0  0  0  0
  4  2  1  0  0  0  0
  4  5  1  0  0  0  0
  5 12  1  0  0  0  0
  6  5  2  0  0  0  0
  6  7  1  0  0  0  0
  8  6  1  0  0  0  0
  9 11  1  0  0  0  0
  9  8  2  0  0  0  0
 10  9  1  0  0  0  0
 11  4  2  0  0  0  0
 12 13  1  0  0  0  0
 12 15  1  0  0  0  0
 14 12  1  0  0  0  0
 16  8  1  0  0  0  0
 16 18  1  0  0  0  0
 17 16  1  0  0  0  0
 19 16  1  0  0  0  0
 20 23  1  0  0  0  0
 20 11  1  0  0  0  0
 21 20  1  0  0  0  0
 22 20  1  0  0  0  0
 24 31  1  0  0  0  0
 25 26  1  0  0  0  0
 25 24  2  0  0  0  0
 26 28  2  0  0  0  0
 27 26  1  0  0  0  0
 28 36  1  0  0  0  0
 28 29  1  0  0  0  0
 29 30  1  0  0  0  0
 31 29  2  0  0  0  0
 31 40  1  0  0  0  0
 32 35  1  0  0  0  0
 32 25  1  0  0  0  0
 33 32  1  0  0  0  0
 34 32  1  0  0  0  0
 36 37  1  0  0  0  0
 36 38  1  0  0  0  0
 39 36  1  0  0  0  0
 40 42  1  0  0  0  0
 40 41  1  0  0  0  0
 43 40  1  0  0  0  0
 44 45  1  0  0  0  0
 44 46  1  0  0  0  0
 47 44  1  0  0  0  0
 48 47  1  0  0  0  0
 48 61  1  0  0  0  0
 49 48  2  0  0  0  0
 50 49  1  0  0  0  0
 51 53  2  0  0  0  0
 51 49  1  0  0  0  0
 52 51  1  0  0  0  0
 53 55  1  0  0  0  0
 54 53  1  0  0  0  0
 55 56  1  0  0  0  0
 55 47  2  0  0  0  0
 57  3  1  0  0  0  0
 57 60  1  0  0  0  0
 58 57  1  0  0  0  0
 59 57  1  0  0  0  0
 60 61  2  0  0  0  0
 60 68  1  0  0  0  0
 61 62  1  0  0  0  0
 62 63  1  0  0  0  0
 62 64  2  0  0  0  0
 64 65  1  0  0  0  0
 66 67  1  0  0  0  0
 66 64  1  0  0  0  0
 68 66  2  0  0  0  0
 69 68  1  0  0  0  0
M  END
