4
 OpenBabel05122313113D

 34 35  0  0  1  0  0  0  0  0999 V2000
    2.7347    1.3123   -2.0122 Si  0  0  0  0  0  0  0  0  0  0  0  0
    1.9370   -1.3089   -0.5757 C   0  0  0  0  0  0  0  0  0  0  0  0
    1.7582   -0.2407   -1.5491 C   0  0  2  0  0  3  0  0  0  0  0  0
    0.6213   -0.6271   -2.3388 C   0  0  0  0  0  3  0  0  0  0  0  0
    0.2126   -0.0356   -3.1688 H   0  0  0  0  0  0  0  0  0  0  0  0
    0.0578   -1.8352   -1.8642 C   0  0  0  0  0  3  0  0  0  0  0  0
   -0.8175   -2.3499   -2.2738 H   0  0  0  0  0  0  0  0  0  0  0  0
    0.8673   -2.2830   -0.7691 C   0  0  0  0  0  0  0  0  0  0  0  0
    0.7313   -3.4351    0.0693 C   0  0  0  0  0  0  0  0  0  0  0  0
    1.6756   -3.5952    1.0800 C   0  0  0  0  0  0  0  0  0  0  0  0
    1.6133   -4.4754    1.7399 H   0  0  0  0  0  0  0  0  0  0  0  0
    2.7412   -2.6702    1.2607 C   0  0  0  0  0  0  0  0  0  0  0  0
    3.4867   -2.8713    2.0473 H   0  0  0  0  0  0  0  0  0  0  0  0
    2.9105   -1.5432    0.4561 C   0  0  0  0  0  0  0  0  0  0  0  0
    2.8731    2.6042   -0.6231 C   0  0  0  0  0  0  0  0  0  0  0  0
    3.5359    2.2940    0.2092 H   0  0  0  0  0  0  0  0  0  0  0  0
    1.8759    2.8396   -0.2017 H   0  0  0  0  0  0  0  0  0  0  0  0
    3.2934    3.5431   -1.0408 H   0  0  0  0  0  0  0  0  0  0  0  0
    1.8259    2.1392   -3.4568 C   0  0  0  0  0  0  0  0  0  0  0  0
    0.7889    2.4277   -3.1916 H   0  0  0  0  0  0  0  0  0  0  0  0
    1.7834    1.4732   -4.3425 H   0  0  0  0  0  0  0  0  0  0  0  0
    2.3674    3.0604   -3.7558 H   0  0  0  0  0  0  0  0  0  0  0  0
    4.4746    0.8813   -2.6369 C   0  0  0  0  0  0  0  0  0  0  0  0
    4.4182    0.1191   -3.4407 H   0  0  0  0  0  0  0  0  0  0  0  0
    5.1344    0.4862   -1.8404 H   0  0  0  0  0  0  0  0  0  0  0  0
    4.9592    1.7869   -3.0581 H   0  0  0  0  0  0  0  0  0  0  0  0
   -0.3702   -4.4263   -0.1780 C   0  0  0  0  0  0  0  0  0  0  0  0
   -0.3461   -5.2560    0.5545 H   0  0  0  0  0  0  0  0  0  0  0  0
   -0.2911   -4.8639   -1.1961 H   0  0  0  0  0  0  0  0  0  0  0  0
   -1.3672   -3.9425   -0.1272 H   0  0  0  0  0  0  0  0  0  0  0  0
    4.1278   -0.6758    0.6244 C   0  0  0  0  0  0  0  0  0  0  0  0
    4.8499   -0.8461   -0.2017 H   0  0  0  0  0  0  0  0  0  0  0  0
    4.6518   -0.8987    1.5742 H   0  0  0  0  0  0  0  0  0  0  0  0
    3.8891    0.4048    0.6064 H   0  0  0  0  0  0  0  0  0  0  0  0
  1 15  1  0  0  0  0
  2 14  1  0  0  0  0
  3  1  1  6  0  0  0
  3  2  1  0  0  0  0
  4  6  1  0  0  0  0
  4  3  1  0  0  0  0
  5  4  1  0  0  0  0
  6  8  1  0  0  0  0
  7  6  1  0  0  0  0
  8  2  2  0  0  0  0
  8  9  1  0  0  0  0
  9 10  2  0  0  0  0
 10 12  1  0  0  0  0
 10 11  1  0  0  0  0
 12 13  1  0  0  0  0
 14 31  1  0  0  0  0
 14 12  2  0  0  0  0
 15 17  1  0  0  0  0
 15 16  1  0  0  0  0
 18 15  1  0  0  0  0
 19 20  1  0  0  0  0
 19  1  1  0  0  0  0
 21 19  1  0  0  0  0
 22 19  1  0  0  0  0
 23  1  1  0  0  0  0
 23 25  1  0  0  0  0
 24 23  1  0  0  0  0
 26 23  1  0  0  0  0
 27 30  1  0  0  0  0
 27  9  1  0  0  0  0
 27 28  1  0  0  0  0
 29 27  1  0  0  0  0
 31 33  1  0  0  0  0
 32 31  1  0  0  0  0
 34 31  1  0  0  0  0
M  END
