5
 OpenBabel05122313113D

 24 24  0  0  1  0  0  0  0  0999 V2000
   -3.6670    0.7473   -2.2718 O   0  0  0  0  0  0  0  0  0  0  0  0
   -2.7633    3.1480    1.6899 O   0  0  0  0  0  0  0  0  0  0  0  0
   -3.2259   -0.5699   -0.4512 N   0  0  0  0  0  0  0  0  0  0  0  0
   -2.8012    0.6067    0.3150 C   0  0  2  0  0  0  0  0  0  0  0  0
   -1.4521    0.3767    0.9956 C   0  0  0  0  0  3  0  0  0  0  0  0
   -1.2018   -0.9475    1.5367 C   0  0  0  0  0  3  0  0  0  0  0  0
   -2.1322   -2.0126    1.1368 C   0  0  0  0  0  0  0  0  0  0  0  0
   -3.0582   -1.8290    0.1566 C   0  0  0  0  0  0  0  0  0  0  0  0
   -3.6540   -0.3763   -1.7613 C   0  0  0  0  0  0  0  0  0  0  0  0
   -4.0816   -1.6120   -2.5259 C   0  0  0  0  0  0  0  0  0  0  0  0
   -3.8400    1.0250    1.3447 C   0  0  0  0  0  0  0  0  0  0  0  0
   -4.9119    0.2988    1.7361 C   0  0  0  0  0  0  0  0  0  0  0  0
   -3.6668    2.3690    1.9520 C   0  0  0  0  0  0  0  0  0  0  0  0
   -2.7316    1.4418   -0.4059 H   0  0  0  0  0  0  0  0  0  0  0  0
   -1.1604    1.2386    1.6196 H   0  0  0  0  0  0  0  0  0  0  0  0
   -0.7869   -1.0366    2.5553 H   0  0  0  0  0  0  0  0  0  0  0  0
   -2.0827   -2.9994    1.6229 H   0  0  0  0  0  0  0  0  0  0  0  0
   -3.7067   -2.6400   -0.1995 H   0  0  0  0  0  0  0  0  0  0  0  0
   -3.2142   -2.2909   -2.6479 H   0  0  0  0  0  0  0  0  0  0  0  0
   -4.8908   -2.1670   -2.0088 H   0  0  0  0  0  0  0  0  0  0  0  0
   -4.4394   -1.2858   -3.5176 H   0  0  0  0  0  0  0  0  0  0  0  0
   -5.1309   -0.6935    1.3168 H   0  0  0  0  0  0  0  0  0  0  0  0
   -5.6024    0.7003    2.4970 H   0  0  0  0  0  0  0  0  0  0  0  0
   -4.4768    2.6414    2.6970 H   0  0  0  0  0  0  0  0  0  0  0  0
  1  9  2  0  0  0  0
  2 13  2  0  0  0  0
  3  8  1  0  0  0  0
  3  4  1  0  0  0  0
  4 14  1  6  0  0  0
  4  5  1  0  0  0  0
  4 11  1  0  0  0  0
  5  6  1  0  0  0  0
  5 15  1  0  0  0  0
  6 16  1  0  0  0  0
  7  6  1  0  0  0  0
  7 17  1  0  0  0  0
  8  7  2  0  0  0  0
  9  3  1  0  0  0  0
 10 20  1  0  0  0  0
 10  9  1  0  0  0  0
 11 12  2  0  0  0  0
 11 13  1  0  0  0  0
 12 23  1  0  0  0  0
 13 24  1  0  0  0  0
 18  8  1  0  0  0  0
 19 10  1  0  0  0  0
 21 10  1  0  0  0  0
 22 12  1  0  0  0  0
M  END
