10
 OpenBabel05122313113D

 34 34  0  0  0  0  0  0  0  0999 V2000
    2.0770    0.7082   -1.0852 N   0  0  0  0  0  0  0  0  0  0  0  0
    1.4575    0.4965   -2.4179 C   0  0  0  0  0  0  0  0  0  0  0  0
    3.4985    0.3067   -1.1849 C   0  0  0  0  0  0  0  0  0  0  0  0
    1.9684    2.1566   -0.7441 C   0  0  0  0  0  0  0  0  0  0  0  0
    0.5451    2.4387   -0.3625 C   0  0  0  0  0  0  0  0  0  0  0  0
   -0.0425    3.6965   -0.5681 C   0  0  0  0  0  0  0  0  0  0  0  0
   -1.3614    3.9285   -0.1542 C   0  0  0  0  0  0  0  0  0  0  0  0
   -2.0800    2.8804    0.4274 C   0  0  0  0  0  0  0  0  0  0  0  0
   -1.5064    1.5982    0.6120 C   0  0  0  0  0  0  0  0  0  0  0  0
   -0.1570    1.3581    0.2353 C   0  0  0  0  0  3  0  0  0  0  0  0
   -2.3968    0.5321    1.1891 C   0  0  0  0  0  0  0  0  0  0  0  0
   -3.0505   -0.3439    0.1286 N   0  3  0  0  0  0  0  0  0  0  0  0
   -3.8234    0.4105   -0.8930 C   0  0  0  0  0  0  0  0  0  0  0  0
   -3.8468   -1.4384    0.7463 C   0  0  0  0  0  0  0  0  0  0  0  0
   -2.2229   -0.8211   -0.3697 H   0  0  0  0  0  0  0  0  0  0  0  0
    1.5311   -0.5660   -2.7047 H   0  0  0  0  0  0  0  0  0  0  0  0
    0.3927    0.7845   -2.3907 H   0  0  0  0  0  0  0  0  0  0  0  0
    1.9889    1.1192   -3.1703 H   0  0  0  0  0  0  0  0  0  0  0  0
    3.5644   -0.7837   -1.3521 H   0  0  0  0  0  0  0  0  0  0  0  0
    3.9833    0.8292   -2.0384 H   0  0  0  0  0  0  0  0  0  0  0  0
    4.0403    0.5745   -0.2614 H   0  0  0  0  0  0  0  0  0  0  0  0
    2.3155    2.7817   -1.5980 H   0  0  0  0  0  0  0  0  0  0  0  0
    2.6545    2.3570    0.1045 H   0  0  0  0  0  0  0  0  0  0  0  0
    0.5386    4.5022   -1.0439 H   0  0  0  0  0  0  0  0  0  0  0  0
   -1.8252    4.9163   -0.2873 H   0  0  0  0  0  0  0  0  0  0  0  0
   -3.1186    3.0528    0.7539 H   0  0  0  0  0  0  0  0  0  0  0  0
   -3.2240    0.9692    1.7833 H   0  0  0  0  0  0  0  0  0  0  0  0
   -1.8361   -0.1728    1.8271 H   0  0  0  0  0  0  0  0  0  0  0  0
   -4.1797   -0.2992   -1.6614 H   0  0  0  0  0  0  0  0  0  0  0  0
   -4.6867    0.9079   -0.4118 H   0  0  0  0  0  0  0  0  0  0  0  0
   -3.1665    1.1676   -1.3554 H   0  0  0  0  0  0  0  0  0  0  0  0
   -4.2506   -2.0890   -0.0503 H   0  0  0  0  0  0  0  0  0  0  0  0
   -3.1856   -2.0348    1.4007 H   0  0  0  0  0  0  0  0  0  0  0  0
   -4.6765   -1.0053    1.3358 H   0  0  0  0  0  0  0  0  0  0  0  0
  1  4  1  0  0  0  0
  2 17  1  0  0  0  0
  2  1  1  0  0  0  0
  3  1  1  0  0  0  0
  3 21  1  0  0  0  0
  4  5  1  0  0  0  0
  4 23  1  0  0  0  0
  5 10  1  0  0  0  0
  6  5  2  0  0  0  0
  6  7  1  0  0  0  0
  7  8  2  0  0  0  0
  8  9  1  0  0  0  0
  8 26  1  0  0  0  0
  9 11  1  0  0  0  0
 10  9  2  0  0  0  0
 11 27  1  0  0  0  0
 11 28  1  0  0  0  0
 12 14  1  0  0  0  0
 12 11  1  0  0  0  0
 13 30  1  0  0  0  0
 13 12  1  0  0  0  0
 14 34  1  0  0  0  0
 14 33  1  0  0  0  0
 15 12  1  0  0  0  0
 16  2  1  0  0  0  0
 18  2  1  0  0  0  0
 19  3  1  0  0  0  0
 20  3  1  0  0  0  0
 22  4  1  0  0  0  0
 24  6  1  0  0  0  0
 25  7  1  0  0  0  0
 29 13  1  0  0  0  0
 31 13  1  0  0  0  0
 32 14  1  0  0  0  0
M  CHG  1  12   1
M  END
