2
 OpenBabel05122313113D

 17 17  0  0  0  0  0  0  0  0999 V2000
   -2.3931   -0.8556    0.1566 S   0  0  0  0  0  0  0  0  0  0  0  0
   -1.1107    1.5808   -0.3610 C   0  0  0  0  0  3  0  0  0  0  0  0
   -1.3508    0.2274   -0.8302 C   0  0  0  0  0  3  0  0  0  0  0  0
   -4.0640   -0.3326   -0.1792 C   0  0  0  0  0  0  0  0  0  0  0  0
   -5.1074   -1.0847    0.4070 C   0  0  0  0  0  0  0  0  0  0  0  0
   -6.4437   -0.7258    0.1915 C   0  0  0  0  0  0  0  0  0  0  0  0
   -6.7635    0.3815   -0.6133 C   0  0  0  0  0  0  0  0  0  0  0  0
   -5.7271    1.1259   -1.1977 C   0  0  0  0  0  0  0  0  0  0  0  0
   -4.3839    0.7785   -0.9860 C   0  0  0  0  0  0  0  0  0  0  0  0
   -1.1859    2.4165   -1.0780 H   0  0  0  0  0  0  0  0  0  0  0  0
   -1.5304    1.8507    0.6204 H   0  0  0  0  0  0  0  0  0  0  0  0
   -1.5247    0.0502   -1.9093 H   0  0  0  0  0  0  0  0  0  0  0  0
   -4.8619   -1.9569    1.0335 H   0  0  0  0  0  0  0  0  0  0  0  0
   -7.2455   -1.3208    0.6559 H   0  0  0  0  0  0  0  0  0  0  0  0
   -7.8141    0.6607   -0.7832 H   0  0  0  0  0  0  0  0  0  0  0  0
   -5.9635    1.9964   -1.8296 H   0  0  0  0  0  0  0  0  0  0  0  0
   -3.5779    1.3730   -1.4377 H   0  0  0  0  0  0  0  0  0  0  0  0
  2 11  1  0  0  0  0
  3  2  1  0  0  0  0
  3  1  1  0  0  0  0
  4  1  1  0  0  0  0
  4  5  1  0  0  0  0
  5 13  1  0  0  0  0
  6  5  2  0  0  0  0
  6 14  1  0  0  0  0
  7  6  1  0  0  0  0
  8  9  1  0  0  0  0
  8  7  2  0  0  0  0
  9  4  2  0  0  0  0
 10  2  1  0  0  0  0
 12  3  1  0  0  0  0
 15  7  1  0  0  0  0
 16  8  1  0  0  0  0
 17  9  1  0  0  0  0
M  END
