1
 OpenBabel05122313113D

 56 59  0  0  1  0  0  0  0  0999 V2000
   -0.8621    0.0407   -1.7001 C   0  0  0  0  0  3  0  0  0  0  0  0
   -1.8276    0.5439   -1.8856 H   0  0  0  0  0  0  0  0  0  0  0  0
   -0.1871    0.1604   -2.5716 H   0  0  0  0  0  0  0  0  0  0  0  0
   -1.0560   -1.3456   -1.3531 C   0  0  2  0  0  3  0  0  0  0  0  0
   -1.9582   -3.2840   -0.6143 C   0  0  0  0  0  0  0  0  0  0  0  0
   -2.7531   -3.9460   -0.2600 H   0  0  0  0  0  0  0  0  0  0  0  0
   -0.6373   -3.5219   -0.8784 C   0  0  0  0  0  0  0  0  0  0  0  0
   -0.0438   -4.4380   -0.8112 H   0  0  0  0  0  0  0  0  0  0  0  0
   -3.3961   -1.2168   -0.5525 C   0  0  0  0  0  0  0  0  0  0  0  0
   -3.5114   -0.7832    0.7883 C   0  0  0  0  0  0  0  0  0  0  0  0
   -2.4237   -1.0782    1.7887 C   0  0  0  0  0  0  0  0  0  0  0  0
   -2.2325   -2.1661    1.8884 H   0  0  0  0  0  0  0  0  0  0  0  0
   -2.6864   -0.6915    2.7904 H   0  0  0  0  0  0  0  0  0  0  0  0
   -1.4604   -0.6056    1.4797 H   0  0  0  0  0  0  0  0  0  0  0  0
   -4.6558   -0.0435    1.1315 C   0  0  0  0  0  0  0  0  0  0  0  0
   -4.7697    0.3062    2.1698 H   0  0  0  0  0  0  0  0  0  0  0  0
   -5.6555    0.2630    0.1862 C   0  0  0  0  0  0  0  0  0  0  0  0
   -6.8872    1.0304    0.5892 C   0  0  0  0  0  0  0  0  0  0  0  0
   -7.6896    0.3353    0.9173 H   0  0  0  0  0  0  0  0  0  0  0  0
   -7.2948    1.6225   -0.2529 H   0  0  0  0  0  0  0  0  0  0  0  0
   -6.6849    1.7161    1.4346 H   0  0  0  0  0  0  0  0  0  0  0  0
   -5.4906   -0.1913   -1.1370 C   0  0  0  0  0  0  0  0  0  0  0  0
   -6.2628    0.0417   -1.8869 H   0  0  0  0  0  0  0  0  0  0  0  0
   -4.3682   -0.9391   -1.5356 C   0  0  0  0  0  0  0  0  0  0  0  0
   -4.1956   -1.4147   -2.9546 C   0  0  0  0  0  0  0  0  0  0  0  0
   -3.3298   -0.9222   -3.4460 H   0  0  0  0  0  0  0  0  0  0  0  0
   -5.0943   -1.1957   -3.5601 H   0  0  0  0  0  0  0  0  0  0  0  0
   -4.0085   -2.5069   -3.0007 H   0  0  0  0  0  0  0  0  0  0  0  0
    1.3118   -2.0128   -1.4953 C   0  0  0  0  0  0  0  0  0  0  0  0
    1.5186   -1.6297   -2.5152 H   0  0  0  0  0  0  0  0  0  0  0  0
    1.9159   -2.9248   -1.3334 H   0  0  0  0  0  0  0  0  0  0  0  0
    3.4212   -0.1382   -1.1334 C   0  0  0  0  0  0  0  0  0  0  0  0
    4.5559   -0.9773   -1.0989 C   0  0  0  0  0  0  0  0  0  0  0  0
    4.5439   -1.9061   -0.5078 H   0  0  0  0  0  0  0  0  0  0  0  0
    5.7100   -0.6190   -1.8105 C   0  0  0  0  0  0  0  0  0  0  0  0
    6.5951   -1.2718   -1.7787 H   0  0  0  0  0  0  0  0  0  0  0  0
    5.7375    0.5690   -2.5602 C   0  0  0  0  0  0  0  0  0  0  0  0
    6.6467    0.8467   -3.1142 H   0  0  0  0  0  0  0  0  0  0  0  0
    4.6078    1.4013   -2.6036 C   0  0  0  0  0  0  0  0  0  0  0  0
    4.6285    2.3312   -3.1912 H   0  0  0  0  0  0  0  0  0  0  0  0
    3.4504    1.0497   -1.8933 C   0  0  0  0  0  0  0  0  0  0  0  0
    2.5547    1.6918   -1.9161 H   0  0  0  0  0  0  0  0  0  0  0  0
    2.3035   -1.4247    1.2531 C   0  0  0  0  0  0  0  0  0  0  0  0
    3.4209   -0.9770    1.9913 C   0  0  0  0  0  0  0  0  0  0  0  0
    4.0990   -0.2215    1.5670 H   0  0  0  0  0  0  0  0  0  0  0  0
    3.6777   -1.5005    3.2678 C   0  0  0  0  0  0  0  0  0  0  0  0
    4.5538   -1.1483    3.8324 H   0  0  0  0  0  0  0  0  0  0  0  0
    2.8264   -2.4697    3.8202 C   0  0  0  0  0  0  0  0  0  0  0  0
    3.0328   -2.8802    4.8197 H   0  0  0  0  0  0  0  0  0  0  0  0
    1.7069   -2.9099    3.0952 C   0  0  0  0  0  0  0  0  0  0  0  0
    1.0323   -3.6647    3.5264 H   0  0  0  0  0  0  0  0  0  0  0  0
    1.4383   -2.3848    1.8235 C   0  0  0  0  0  0  0  0  0  0  0  0
    0.5389   -2.7189    1.2848 H   0  0  0  0  0  0  0  0  0  0  0  0
   -2.2061   -1.9435   -0.9085 N   0  0  0  0  0  0  0  0  0  0  0  0
   -0.0898   -2.3199   -1.3314 N   0  0  0  0  0  0  0  0  0  0  0  0
    1.8473   -0.6050   -0.3201 P   0  0  0  0  0  0  0  0  0  0  0  0
  2  1  1  0  0  0  0
  3  1  1  0  0  0  0
  4  1  1  1  0  0  0
  4 55  1  0  0  0  0
  4 54  1  0  0  0  0
  5  6  1  0  0  0  0
  7  8  1  0  0  0  0
  7  5  2  0  0  0  0
  9 10  1  0  0  0  0
 10 15  2  0  0  0  0
 10 11  1  0  0  0  0
 11 12  1  0  0  0  0
 11 13  1  0  0  0  0
 14 11  1  0  0  0  0
 15 16  1  0  0  0  0
 17 18  1  0  0  0  0
 17 15  1  0  0  0  0
 18 19  1  0  0  0  0
 18 21  1  0  0  0  0
 20 18  1  0  0  0  0
 22 17  2  0  0  0  0
 23 22  1  0  0  0  0
 24 22  1  0  0  0  0
 24  9  2  0  0  0  0
 25 24  1  0  0  0  0
 26 25  1  0  0  0  0
 27 25  1  0  0  0  0
 28 25  1  0  0  0  0
 29 31  1  0  0  0  0
 29 55  1  0  0  0  0
 29 56  1  0  0  0  0
 30 29  1  0  0  0  0
 32 33  1  0  0  0  0
 32 56  1  0  0  0  0
 33 34  1  0  0  0  0
 35 36  1  0  0  0  0
 35 33  2  0  0  0  0
 37 35  1  0  0  0  0
 38 37  1  0  0  0  0
 39 37  2  0  0  0  0
 39 41  1  0  0  0  0
 40 39  1  0  0  0  0
 41 32  2  0  0  0  0
 42 41  1  0  0  0  0
 43 52  2  0  0  0  0
 43 44  1  0  0  0  0
 44 46  2  0  0  0  0
 45 44  1  0  0  0  0
 46 48  1  0  0  0  0
 46 47  1  0  0  0  0
 48 49  1  0  0  0  0
 50 51  1  0  0  0  0
 50 48  2  0  0  0  0
 52 50  1  0  0  0  0
 53 52  1  0  0  0  0
 54  5  1  0  0  0  0
 54  9  1  0  0  0  0
 55  7  1  0  0  0  0
 56 43  1  0  0  0  0
M  END
