2
 OpenBabel05122313113D

 27 27  0  0  1  0  0  0  0  0999 V2000
    0.0517    2.0375    0.3260 C   0  0  0  0  0  3  0  0  0  0  0  0
   -0.6730    1.0210   -0.3105 C   0  0  1  0  0  3  0  0  0  0  0  0
   -0.1556    0.5561   -1.5974 C   0  0  0  0  0  3  0  0  0  0  0  0
    0.0798   -0.8310   -1.7341 C   0  0  0  0  0  0  0  0  0  0  0  0
   -0.1426   -1.6653   -0.5815 C   0  0  0  0  0  0  0  0  0  0  0  0
   -0.7456   -1.1459    0.5734 C   0  0  0  0  0  3  0  0  0  0  0  0
   -1.5826    0.1123    0.5073 C   0  0  2  0  0  0  0  0  0  0  0  0
   -3.0784   -0.0165    0.0667 C   0  0  0  0  0  0  0  0  0  0  0  0
   -3.7908   -0.9323    1.0781 C   0  0  0  0  0  0  0  0  0  0  0  0
   -3.2412   -0.6016   -1.3454 C   0  0  0  0  0  0  0  0  0  0  0  0
   -3.7000    1.3902    0.1112 C   0  0  0  0  0  0  0  0  0  0  0  0
   -0.2052    2.3276    1.3566 H   0  0  0  0  0  0  0  0  0  0  0  0
    0.6429    2.7611   -0.2534 H   0  0  0  0  0  0  0  0  0  0  0  0
    0.1645    1.2653   -2.3757 H   0  0  0  0  0  0  0  0  0  0  0  0
    0.5292   -1.2442   -2.6474 H   0  0  0  0  0  0  0  0  0  0  0  0
    0.2544   -2.6912   -0.5846 H   0  0  0  0  0  0  0  0  0  0  0  0
   -0.7629   -1.7675    1.4811 H   0  0  0  0  0  0  0  0  0  0  0  0
   -1.6113    0.5444    1.5300 H   0  0  0  0  0  0  0  0  0  0  0  0
   -3.6975   -0.5425    2.1132 H   0  0  0  0  0  0  0  0  0  0  0  0
   -3.3697   -1.9583    1.0611 H   0  0  0  0  0  0  0  0  0  0  0  0
   -4.8718   -1.0103    0.8427 H   0  0  0  0  0  0  0  0  0  0  0  0
   -2.7863    0.0500   -2.1171 H   0  0  0  0  0  0  0  0  0  0  0  0
   -2.7774   -1.6045   -1.4290 H   0  0  0  0  0  0  0  0  0  0  0  0
   -4.3186   -0.7081   -1.5878 H   0  0  0  0  0  0  0  0  0  0  0  0
   -3.1895    2.0792   -0.5928 H   0  0  0  0  0  0  0  0  0  0  0  0
   -3.6281    1.8316    1.1271 H   0  0  0  0  0  0  0  0  0  0  0  0
   -4.7728    1.3559   -0.1682 H   0  0  0  0  0  0  0  0  0  0  0  0
  1 12  1  0  0  0  0
  2  1  1  1  0  0  0
  2  7  1  0  0  0  0
  3  2  1  0  0  0  0
  4  3  1  0  0  0  0
  4  5  2  0  0  0  0
  5  6  1  0  0  0  0
  6 17  1  0  0  0  0
  7  6  1  0  0  0  0
  7 18  1  1  0  0  0
  8 11  1  0  0  0  0
  8  7  1  0  0  0  0
  8  9  1  0  0  0  0
  9 19  1  0  0  0  0
 10  8  1  0  0  0  0
 11 26  1  0  0  0  0
 13  1  1  0  0  0  0
 14  3  1  0  0  0  0
 15  4  1  0  0  0  0
 16  5  1  0  0  0  0
 20  9  1  0  0  0  0
 21  9  1  0  0  0  0
 22 10  1  0  0  0  0
 23 10  1  0  0  0  0
 24 10  1  0  0  0  0
 25 11  1  0  0  0  0
 27 11  1  0  0  0  0
M  END
