7
 OpenBabel05122313113D

 14 14  0  0  0  0  0  0  0  0999 V2000
    3.9990   -2.5828    0.0000 O   0  0  0  0  0  0  0  0  0  0  0  0
    0.2267    2.5985    0.0000 O   0  0  0  0  0  0  0  0  0  0  0  0
    0.6112    3.4956   -0.0000 H   0  0  0  0  0  0  0  0  0  0  0  0
    3.2005   -0.3233   -0.0001 C   0  0  0  0  0  0  0  0  0  0  0  0
    1.8289   -0.6731    0.0000 C   0  0  0  0  0  0  0  0  0  0  0  0
    1.5888   -1.7481    0.0001 H   0  0  0  0  0  0  0  0  0  0  0  0
    0.8382    0.3099    0.0001 C   0  0  0  0  0  3  0  0  0  0  0  0
    1.2227    1.6755   -0.0000 C   0  0  0  0  0  0  0  0  0  0  0  0
    2.5872    2.0344   -0.0001 C   0  0  0  0  0  0  0  0  0  0  0  0
    2.8721    3.0994   -0.0002 H   0  0  0  0  0  0  0  0  0  0  0  0
    3.5659    1.0364   -0.0002 C   0  0  0  0  0  0  0  0  0  0  0  0
    4.6330    1.3118   -0.0003 H   0  0  0  0  0  0  0  0  0  0  0  0
    4.2318   -1.3845   -0.0001 C   0  0  0  0  0  0  0  0  0  0  0  0
    5.2954   -0.9934   -0.0002 H   0  0  0  0  0  0  0  0  0  0  0  0
  3  2  1  0  0  0  0
  4  5  1  0  0  0  0
  5  7  2  0  0  0  0
  5  6  1  0  0  0  0
  8  2  1  0  0  0  0
  8  7  1  0  0  0  0
  9  8  2  0  0  0  0
 10  9  1  0  0  0  0
 11  9  1  0  0  0  0
 11  4  2  0  0  0  0
 12 11  1  0  0  0  0
 13  4  1  0  0  0  0
 13  1  2  0  0  0  0
 14 13  1  0  0  0  0
M  END
