2
 OpenBabel05122313113D

 44 45  0  0  1  0  0  0  0  0999 V2000
    1.2620    0.1615    0.4953 B   0  0  1  0  0  0  0  0  0  0  0  0
   -0.3000    0.2606    0.0940 C   0  0  0  0  0  2  0  0  0  0  0  0
    0.4828    1.2440   -0.2771 N   0  0  0  0  0  0  0  0  0  0  0  0
    0.3728    2.5633   -0.9400 C   0  0  0  0  0  0  0  0  0  0  0  0
    1.5265    3.4573   -0.4627 C   0  0  0  0  0  0  0  0  0  0  0  0
    1.4906    3.5922    0.6357 H   0  0  0  0  0  0  0  0  0  0  0  0
    1.4550    4.4563   -0.9370 H   0  0  0  0  0  0  0  0  0  0  0  0
    2.5129    3.0304   -0.7256 H   0  0  0  0  0  0  0  0  0  0  0  0
    0.4683    2.3394   -2.4614 C   0  0  0  0  0  0  0  0  0  0  0  0
    1.4196    1.8358   -2.7293 H   0  0  0  0  0  0  0  0  0  0  0  0
    0.4245    3.3051   -3.0052 H   0  0  0  0  0  0  0  0  0  0  0  0
   -0.3665    1.7034   -2.8146 H   0  0  0  0  0  0  0  0  0  0  0  0
   -0.9628    3.2278   -0.5791 C   0  0  0  0  0  0  0  0  0  0  0  0
   -1.8137    2.5948   -0.8863 H   0  0  0  0  0  0  0  0  0  0  0  0
   -1.0441    4.2111   -1.0844 H   0  0  0  0  0  0  0  0  0  0  0  0
   -1.0462    3.3822    0.5135 H   0  0  0  0  0  0  0  0  0  0  0  0
    1.7734    0.3779    2.0418 C   0  0  0  0  0  0  0  0  0  0  0  0
    1.8037   -0.9790    2.7748 C   0  0  0  0  0  0  0  0  0  0  0  0
    2.1404   -0.8570    3.8289 H   0  0  0  0  0  0  0  0  0  0  0  0
    2.5132   -1.6905    2.2973 H   0  0  0  0  0  0  0  0  0  0  0  0
    0.8011   -1.4507    2.7998 H   0  0  0  0  0  0  0  0  0  0  0  0
    3.1851    0.9926    2.1153 C   0  0  0  0  0  0  0  0  0  0  0  0
    3.2272    1.9936    1.6356 H   0  0  0  0  0  0  0  0  0  0  0  0
    3.9457    0.3454    1.6264 H   0  0  0  0  0  0  0  0  0  0  0  0
    3.5145    1.1265    3.1708 H   0  0  0  0  0  0  0  0  0  0  0  0
    0.7888    1.3026    2.7775 C   0  0  0  0  0  0  0  0  0  0  0  0
   -0.2348    0.8790    2.7917 H   0  0  0  0  0  0  0  0  0  0  0  0
    0.7186    2.2997    2.2958 H   0  0  0  0  0  0  0  0  0  0  0  0
    1.1040    1.4642    3.8319 H   0  0  0  0  0  0  0  0  0  0  0  0
    2.1457   -0.8702   -0.3852 C   0  0  2  0  0  3  0  0  0  0  0  0
    1.9034   -2.2086   -0.5161 N   0  0  0  0  0  0  0  0  0  0  0  0
    2.8653   -2.8124   -1.3078 C   0  0  0  0  0  0  0  0  0  0  0  0
    2.8494   -3.8832   -1.5304 H   0  0  0  0  0  0  0  0  0  0  0  0
    3.7355   -1.8266   -1.6955 C   0  0  0  0  0  0  0  0  0  0  0  0
    4.6258   -1.8622   -2.3301 H   0  0  0  0  0  0  0  0  0  0  0  0
    3.2821   -0.6512   -1.1168 N   0  0  0  0  0  0  0  0  0  0  0  0
    0.7843   -2.9106    0.1032 C   0  0  0  0  0  0  0  0  0  0  0  0
    1.0546   -3.2625    1.1158 H   0  0  0  0  0  0  0  0  0  0  0  0
    0.5092   -3.7730   -0.5313 H   0  0  0  0  0  0  0  0  0  0  0  0
   -0.0682   -2.2084    0.1793 H   0  0  0  0  0  0  0  0  0  0  0  0
    3.9231    0.6398   -1.3029 C   0  0  0  0  0  0  0  0  0  0  0  0
    3.7045    1.0451   -2.3109 H   0  0  0  0  0  0  0  0  0  0  0  0
    5.0174    0.5351   -1.1783 H   0  0  0  0  0  0  0  0  0  0  0  0
    3.5372    1.3352   -0.5407 H   0  0  0  0  0  0  0  0  0  0  0  0
  1 17  1  1  0  0  0
  2  1  1  0  0  0  0
  3  2  1  0  0  0  0
  3  1  1  0  0  0  0
  4 13  1  0  0  0  0
  4  5  1  0  0  0  0
  4  3  1  0  0  0  0
  5  6  1  0  0  0  0
  7  5  1  0  0  0  0
  8  5  1  0  0  0  0
  9  4  1  0  0  0  0
 10  9  1  0  0  0  0
 11  9  1  0  0  0  0
 12  9  1  0  0  0  0
 13 16  1  0  0  0  0
 14 13  1  0  0  0  0
 15 13  1  0  0  0  0
 17 22  1  0  0  0  0
 17 18  1  0  0  0  0
 17 26  1  0  0  0  0
 18 21  1  0  0  0  0
 18 19  1  0  0  0  0
 20 18  1  0  0  0  0
 22 25  1  0  0  0  0
 23 22  1  0  0  0  0
 24 22  1  0  0  0  0
 26 27  1  0  0  0  0
 26 29  1  0  0  0  0
 28 26  1  0  0  0  0
 30 36  1  1  0  0  0
 30  1  1  0  0  0  0
 31 30  1  0  0  0  0
 31 37  1  0  0  0  0
 32 31  1  0  0  0  0
 33 32  1  0  0  0  0
 34 32  2  0  0  0  0
 34 36  1  0  0  0  0
 35 34  1  0  0  0  0
 37 40  1  0  0  0  0
 37 38  1  0  0  0  0
 39 37  1  0  0  0  0
 41 43  1  0  0  0  0
 41 36  1  0  0  0  0
 41 44  1  0  0  0  0
 42 41  1  0  0  0  0
M  END
