8
 OpenBabel05122313113D

 30 31  0  0  0  0  0  0  0  0999 V2000
   -2.5334    2.9336   -0.1759 O   0  0  0  0  0  0  0  0  0  0  0  0
   -0.5008   -1.9628    0.8699 O   0  0  0  0  0  0  0  0  0  0  0  0
   -0.5640   -1.4381   -1.3567 O   0  0  0  0  0  0  0  0  0  0  0  0
   -1.7258    4.1113   -0.1706 C   0  0  0  0  0  0  0  0  0  0  0  0
   -0.6740   -1.6171    2.2356 C   0  0  0  0  0  0  0  0  0  0  0  0
   -1.0595   -2.7054   -1.7641 C   0  0  0  0  0  0  0  0  0  0  0  0
   -0.8608   -0.9570   -0.0649 C   0  0  0  0  0  0  0  0  0  0  0  0
    0.0618    0.2846    0.0469 C   0  0  0  0  0  2  0  0  0  0  0  0
   -0.5797    1.5399    0.0670 C   0  0  0  0  0  0  0  0  0  0  0  0
   -1.9589    1.7292   -0.0655 C   0  0  0  0  0  0  0  0  0  0  0  0
   -2.8977    0.6151   -0.0616 C   0  0  0  0  0  0  0  0  0  0  0  0
   -4.2952    0.8266   -0.0740 C   0  0  0  0  0  0  0  0  0  0  0  0
   -5.1697   -0.2575    0.0425 C   0  0  0  0  0  0  0  0  0  0  0  0
   -4.6529   -1.5552    0.1971 C   0  0  0  0  0  0  0  0  0  0  0  0
   -3.2653   -1.7677    0.2027 C   0  0  0  0  0  0  0  0  0  0  0  0
   -2.3713   -0.6951    0.0436 C   0  0  0  0  0  0  0  0  0  0  0  0
    0.0463    2.4393    0.1342 H   0  0  0  0  0  0  0  0  0  0  0  0
   -4.6766    1.8533   -0.1585 H   0  0  0  0  0  0  0  0  0  0  0  0
   -6.2572   -0.0912    0.0328 H   0  0  0  0  0  0  0  0  0  0  0  0
   -5.3357   -2.4097    0.3191 H   0  0  0  0  0  0  0  0  0  0  0  0
   -2.8624   -2.7788    0.3526 H   0  0  0  0  0  0  0  0  0  0  0  0
   -2.4209    4.9554   -0.3247 H   0  0  0  0  0  0  0  0  0  0  0  0
   -1.2030    4.2326    0.8011 H   0  0  0  0  0  0  0  0  0  0  0  0
   -0.9762    4.0864   -0.9890 H   0  0  0  0  0  0  0  0  0  0  0  0
   -0.2518   -2.4512    2.8263 H   0  0  0  0  0  0  0  0  0  0  0  0
   -0.1267   -0.6841    2.4975 H   0  0  0  0  0  0  0  0  0  0  0  0
   -1.7473   -1.4867    2.5008 H   0  0  0  0  0  0  0  0  0  0  0  0
   -0.8924   -3.4782   -0.9860 H   0  0  0  0  0  0  0  0  0  0  0  0
   -2.1391   -2.6717   -2.0324 H   0  0  0  0  0  0  0  0  0  0  0  0
   -0.4750   -2.9694   -2.6664 H   0  0  0  0  0  0  0  0  0  0  0  0
  1  4  1  0  0  0  0
  1 10  1  0  0  0  0
  2  5  1  0  0  0  0
  3  7  1  0  0  0  0
  4 23  1  0  0  0  0
  5 26  1  0  0  0  0
  5 27  1  0  0  0  0
  5 25  1  0  0  0  0
  6  3  1  0  0  0  0
  6 28  1  0  0  0  0
  7 16  1  0  0  0  0
  7  8  1  0  0  0  0
  7  2  1  0  0  0  0
  8  9  1  0  0  0  0
  9 17  1  0  0  0  0
 10 11  1  0  0  0  0
 10  9  2  0  0  0  0
 11 16  1  0  0  0  0
 12 11  2  0  0  0  0
 12 13  1  0  0  0  0
 13 14  2  0  0  0  0
 14 15  1  0  0  0  0
 14 20  1  0  0  0  0
 15 21  1  0  0  0  0
 16 15  2  0  0  0  0
 18 12  1  0  0  0  0
 19 13  1  0  0  0  0
 22  4  1  0  0  0  0
 24  4  1  0  0  0  0
 29  6  1  0  0  0  0
 30  6  1  0  0  0  0
M  END
