3
 OpenBabel05122313113D

 20 21  0  0  0  0  0  0  0  0999 V2000
   -0.3405    1.2071   -1.3351 C   0  0  0  0  0  0  0  0  0  0  0  0
   -1.5643    0.7185   -1.9096 C   0  0  0  0  0  0  0  0  0  0  0  0
   -1.5643   -0.7188   -1.9095 C   0  0  0  0  0  3  0  0  0  0  0  0
   -0.3405   -1.2072   -1.3349 C   0  0  0  0  0  0  0  0  0  0  0  0
    0.5921   -0.0000   -1.0223 B   0  0  0  0  0  0  0  0  0  0  0  0
    2.0694   -0.0000   -0.4957 C   0  0  0  0  0  0  0  0  0  0  0  0
    2.7648   -1.2088   -0.2541 C   0  0  0  0  0  0  0  0  0  0  0  0
    4.0877   -1.2144    0.2103 C   0  0  0  0  0  0  0  0  0  0  0  0
    4.7532    0.0000    0.4448 C   0  0  0  0  0  0  0  0  0  0  0  0
    4.0876    1.2144    0.2104 C   0  0  0  0  0  0  0  0  0  0  0  0
    2.7647    1.2088   -0.2540 C   0  0  0  0  0  0  0  0  0  0  0  0
   -0.1847    2.2857   -1.1844 H   0  0  0  0  0  0  0  0  0  0  0  0
   -2.3972    1.3321   -2.2837 H   0  0  0  0  0  0  0  0  0  0  0  0
   -2.3972   -1.3324   -2.2835 H   0  0  0  0  0  0  0  0  0  0  0  0
   -0.1847   -2.2858   -1.1840 H   0  0  0  0  0  0  0  0  0  0  0  0
    2.2558   -2.1694   -0.4336 H   0  0  0  0  0  0  0  0  0  0  0  0
    4.6051   -2.1694    0.3908 H   0  0  0  0  0  0  0  0  0  0  0  0
    5.7920    0.0000    0.8098 H   0  0  0  0  0  0  0  0  0  0  0  0
    4.6050    2.1695    0.3910 H   0  0  0  0  0  0  0  0  0  0  0  0
    2.2557    2.1694   -0.4334 H   0  0  0  0  0  0  0  0  0  0  0  0
  1 12  1  0  0  0  0
  1  5  1  0  0  0  0
  2  3  1  0  0  0  0
  2  1  2  0  0  0  0
  3  4  1  0  0  0  0
  4 15  1  0  0  0  0
  4  5  2  0  0  0  0
  5  6  1  0  0  0  0
  6  7  2  0  0  0  0
  6 11  1  0  0  0  0
  7  8  1  0  0  0  0
  8 17  1  0  0  0  0
  8  9  2  0  0  0  0
  9 18  1  0  0  0  0
 10 19  1  0  0  0  0
 10  9  1  0  0  0  0
 11 10  2  0  0  0  0
 13  2  1  0  0  0  0
 14  3  1  0  0  0  0
 16  7  1  0  0  0  0
 20 11  1  0  0  0  0
M  END
