44
 OpenBabel05122313113D

 45 46  0  0  0  0  0  0  0  0999 V2000
    6.0285    1.1608    0.1461 O   0  0  0  0  0  0  0  0  0  0  0  0
    0.3906    0.4884    0.0638 C   0  0  0  0  0  0  0  0  0  0  0  0
    1.8614    0.6372    0.0823 C   0  0  0  0  0  0  0  0  0  0  0  0
   -1.6207   -0.8482    0.5099 C   0  0  0  0  0  0  0  0  0  0  0  0
   -2.0943   -1.7683    0.8800 H   0  0  0  0  0  0  0  0  0  0  0  0
    6.9339    0.0679   -0.0035 C   0  0  0  0  0  0  0  0  0  0  0  0
    6.7618   -0.4375   -0.9829 H   0  0  0  0  0  0  0  0  0  0  0  0
    6.7521   -0.6888    0.7955 H   0  0  0  0  0  0  0  0  0  0  0  0
   -2.4306    0.2032    0.0261 C   0  0  0  0  0  0  0  0  0  0  0  0
   -0.4461    1.5261   -0.4170 C   0  0  0  0  0  0  0  0  0  0  0  0
    0.0061    2.4482   -0.8097 H   0  0  0  0  0  0  0  0  0  0  0  0
    4.6955    0.9227    0.1152 C   0  0  0  0  0  0  0  0  0  0  0  0
    2.7145   -0.4760   -0.0798 C   0  0  0  0  0  0  0  0  0  0  0  0
    2.2807   -1.4722   -0.2532 H   0  0  0  0  0  0  0  0  0  0  0  0
    4.1092   -0.3485   -0.0683 C   0  0  0  0  0  0  0  0  0  0  0  0
    4.7308   -1.2414   -0.2145 H   0  0  0  0  0  0  0  0  0  0  0  0
    8.3519    0.6087    0.0802 C   0  0  0  0  0  0  0  0  0  0  0  0
    8.4752    1.1312    1.0531 H   0  0  0  0  0  0  0  0  0  0  0  0
    8.4832    1.3823   -0.7067 H   0  0  0  0  0  0  0  0  0  0  0  0
   -0.2341   -0.6966    0.5260 C   0  0  0  0  0  0  0  0  0  0  0  0
    0.3831   -1.5097    0.9347 H   0  0  0  0  0  0  0  0  0  0  0  0
    2.4715    1.9045    0.2616 C   0  0  0  0  0  0  0  0  0  0  0  0
    1.8434    2.7936    0.4215 H   0  0  0  0  0  0  0  0  0  0  0  0
    3.8566    2.0486    0.2815 C   0  0  0  0  0  0  0  0  0  0  0  0
    4.3277    3.0298    0.4363 H   0  0  0  0  0  0  0  0  0  0  0  0
   10.8468    0.0431    0.0115 C   0  0  0  0  0  0  0  0  0  0  0  0
   10.9890    0.5679    0.9830 H   0  0  0  0  0  0  0  0  0  0  0  0
   10.9973    0.8201   -0.7716 H   0  0  0  0  0  0  0  0  0  0  0  0
    9.4119   -0.4847   -0.0711 C   0  0  0  0  0  0  0  0  0  0  0  0
    9.2616   -1.2610    0.7131 H   0  0  0  0  0  0  0  0  0  0  0  0
    9.2701   -1.0096   -1.0430 H   0  0  0  0  0  0  0  0  0  0  0  0
   -1.8351    1.3968   -0.4384 C   0  0  0  0  0  0  0  0  0  0  0  0
   -2.4732    2.2049   -0.8227 H   0  0  0  0  0  0  0  0  0  0  0  0
   13.3502   -0.5178   -0.0570 C   0  0  0  0  0  0  0  0  0  0  0  0
   13.4897    0.0071    0.9144 H   0  0  0  0  0  0  0  0  0  0  0  0
   13.4980    0.2600   -0.8392 H   0  0  0  0  0  0  0  0  0  0  0  0
   11.9139   -1.0436   -0.1396 C   0  0  0  0  0  0  0  0  0  0  0  0
   11.7617   -1.8212    0.6433 H   0  0  0  0  0  0  0  0  0  0  0  0
   11.7702   -1.5687   -1.1115 H   0  0  0  0  0  0  0  0  0  0  0  0
   14.4092   -1.6100   -0.2095 C   0  0  0  0  0  0  0  0  0  0  0  0
   14.3086   -2.3826    0.5814 H   0  0  0  0  0  0  0  0  0  0  0  0
   15.4367   -1.1988   -0.1454 H   0  0  0  0  0  0  0  0  0  0  0  0
   14.3169   -2.1276   -1.1873 H   0  0  0  0  0  0  0  0  0  0  0  0
   -4.9768   -0.0568   -0.0073 C   0  0  0  0  0  1  0  0  0  0  0  0
   -3.7979    0.0646    0.0079 N   0  0  0  0  0  2  0  0  0  0  0  0
  2  3  1  0  0  0  0
  2 20  1  0  0  0  0
  3 22  1  0  0  0  0
  4 20  2  0  0  0  0
  4  5  1  0  0  0  0
  6 17  1  0  0  0  0
  6  1  1  0  0  0  0
  6  8  1  0  0  0  0
  7  6  1  0  0  0  0
  9  4  1  0  0  0  0
 10  2  2  0  0  0  0
 11 10  1  0  0  0  0
 12  1  1  0  0  0  0
 12 24  1  0  0  0  0
 13 15  1  0  0  0  0
 13  3  2  0  0  0  0
 14 13  1  0  0  0  0
 15 12  2  0  0  0  0
 16 15  1  0  0  0  0
 17 18  1  0  0  0  0
 19 17  1  0  0  0  0
 20 21  1  0  0  0  0
 22 24  2  0  0  0  0
 22 23  1  0  0  0  0
 24 25  1  0  0  0  0
 26 27  1  0  0  0  0
 28 26  1  0  0  0  0
 29 26  1  0  0  0  0
 29 17  1  0  0  0  0
 29 30  1  0  0  0  0
 31 29  1  0  0  0  0
 32 10  1  0  0  0  0
 32  9  2  0  0  0  0
 33 32  1  0  0  0  0
 34 35  1  0  0  0  0
 36 34  1  0  0  0  0
 37 34  1  0  0  0  0
 37 26  1  0  0  0  0
 37 38  1  0  0  0  0
 39 37  1  0  0  0  0
 40 42  1  0  0  0  0
 40 34  1  0  0  0  0
 40 41  1  0  0  0  0
 43 40  1  0  0  0  0
 44 45  1  0  0  0  0
 45  9  1  0  0  0  0
M  END
