3
 OpenBabel05122313113D

 27 27  0  0  0  0  0  0  0  0999 V2000
    1.4293   -1.0360   -0.4803 N   0  0  0  0  0  0  0  0  0  0  0  0
    1.4253    1.0285    0.1623 N   0  0  0  0  0  0  0  0  0  0  0  0
    0.5669    0.0133   -0.2206 C   0  0  0  0  0  2  0  0  0  0  0  0
    2.7686   -0.6870   -0.2605 C   0  0  0  0  0  0  0  0  0  0  0  0
    2.7649    0.6240    0.1528 C   0  0  0  0  0  0  0  0  0  0  0  0
    1.0178    2.3940    0.4835 C   0  0  0  0  0  0  0  0  0  0  0  0
    1.5538    2.7047    1.4050 H   0  0  0  0  0  0  0  0  0  0  0  0
   -0.0592    2.3410    0.7228 H   0  0  0  0  0  0  0  0  0  0  0  0
    1.2587    3.3918   -0.6487 C   0  0  0  0  0  0  0  0  0  0  0  0
    2.3299    3.4678   -0.9215 H   0  0  0  0  0  0  0  0  0  0  0  0
    0.9178    4.3988   -0.3354 H   0  0  0  0  0  0  0  0  0  0  0  0
    0.6828    3.1075   -1.5488 H   0  0  0  0  0  0  0  0  0  0  0  0
    1.0424   -2.3826   -0.8926 C   0  0  0  0  0  0  0  0  0  0  0  0
    1.7679   -2.7217   -1.6598 H   0  0  0  0  0  0  0  0  0  0  0  0
    0.0624   -2.3036   -1.3906 H   0  0  0  0  0  0  0  0  0  0  0  0
    0.9781   -3.3844    0.2584 C   0  0  0  0  0  0  0  0  0  0  0  0
    1.9499   -3.4874    0.7814 H   0  0  0  0  0  0  0  0  0  0  0  0
    0.6910   -4.3838   -0.1250 H   0  0  0  0  0  0  0  0  0  0  0  0
    0.2212   -3.0729    1.0021 H   0  0  0  0  0  0  0  0  0  0  0  0
    3.9139   -1.6111   -0.5015 C   0  0  0  0  0  0  0  0  0  0  0  0
    4.8668   -1.1079   -0.2527 H   0  0  0  0  0  0  0  0  0  0  0  0
    3.9765   -1.9265   -1.5649 H   0  0  0  0  0  0  0  0  0  0  0  0
    3.8558   -2.5356    0.1097 H   0  0  0  0  0  0  0  0  0  0  0  0
    3.8970    1.5005    0.5690 C   0  0  0  0  0  0  0  0  0  0  0  0
    4.8472    0.9356    0.5389 H   0  0  0  0  0  0  0  0  0  0  0  0
    3.7687    1.8769    1.6062 H   0  0  0  0  0  0  0  0  0  0  0  0
    4.0160    2.3881   -0.0863 H   0  0  0  0  0  0  0  0  0  0  0  0
  1  4  1  0  0  0  0
  1  3  1  0  0  0  0
  2  6  1  0  0  0  0
  3  2  1  0  0  0  0
  4  5  2  0  0  0  0
  5  2  1  0  0  0  0
  5 24  1  0  0  0  0
  6  8  1  0  0  0  0
  6  7  1  0  0  0  0
  9 11  1  0  0  0  0
  9  6  1  0  0  0  0
 10  9  1  0  0  0  0
 12  9  1  0  0  0  0
 13  1  1  0  0  0  0
 13 16  1  0  0  0  0
 14 13  1  0  0  0  0
 15 13  1  0  0  0  0
 16 17  1  0  0  0  0
 16 19  1  0  0  0  0
 18 16  1  0  0  0  0
 20  4  1  0  0  0  0
 20 21  1  0  0  0  0
 20 23  1  0  0  0  0
 22 20  1  0  0  0  0
 24 26  1  0  0  0  0
 25 24  1  0  0  0  0
 27 24  1  0  0  0  0
M  END
