39
 OpenBabel05122313113D

 53 55  0  0  1  0  0  0  0  0999 V2000
    1.0538    0.3133   -0.4908 P   0  0  0  0  0  0  0  0  0  0  0  0
   -2.7147    0.9559   -0.0627 N   0  0  0  0  0  0  0  0  0  0  0  0
    0.9227    2.1281   -0.3329 C   0  0  0  0  0  0  0  0  0  0  0  0
    0.9147    2.6797    0.9662 C   0  0  0  0  0  0  0  0  0  0  0  0
    0.9581    2.0119    1.8409 H   0  0  0  0  0  0  0  0  0  0  0  0
    0.8558    4.0691    1.1406 C   0  0  0  0  0  0  0  0  0  0  0  0
    0.8604    4.4954    2.1549 H   0  0  0  0  0  0  0  0  0  0  0  0
    0.7847    4.9153    0.0205 C   0  0  0  0  0  0  0  0  0  0  0  0
    0.7320    6.0057    0.1573 H   0  0  0  0  0  0  0  0  0  0  0  0
    0.7821    4.3700   -1.2731 C   0  0  0  0  0  0  0  0  0  0  0  0
    0.7305    5.0316   -2.1508 H   0  0  0  0  0  0  0  0  0  0  0  0
    0.8592    2.9792   -1.4534 C   0  0  0  0  0  0  0  0  0  0  0  0
    0.8798    2.5646   -2.4727 H   0  0  0  0  0  0  0  0  0  0  0  0
    2.8445   -0.0582   -0.3610 C   0  0  0  0  0  0  0  0  0  0  0  0
    3.8060    0.9537   -0.1734 C   0  0  0  0  0  0  0  0  0  0  0  0
    3.4961    2.0056   -0.0895 H   0  0  0  0  0  0  0  0  0  0  0  0
    5.1674    0.6170   -0.0972 C   0  0  0  0  0  0  0  0  0  0  0  0
    5.9150    1.4105    0.0514 H   0  0  0  0  0  0  0  0  0  0  0  0
    5.5740   -0.7203   -0.2135 C   0  0  0  0  0  0  0  0  0  0  0  0
    6.6417   -0.9786   -0.1540 H   0  0  0  0  0  0  0  0  0  0  0  0
    4.6159   -1.7314   -0.4031 C   0  0  0  0  0  0  0  0  0  0  0  0
    4.9320   -2.7814   -0.4933 H   0  0  0  0  0  0  0  0  0  0  0  0
    3.2552   -1.4054   -0.4688 C   0  0  0  0  0  0  0  0  0  0  0  0
    2.5009   -2.1986   -0.5958 H   0  0  0  0  0  0  0  0  0  0  0  0
    0.5248   -0.2814   -2.1601 C   0  0  0  0  0  0  0  0  0  0  0  0
    0.0427    0.4746   -2.8156 H   0  0  0  0  0  0  0  0  0  0  0  0
    1.3975   -0.6988   -2.6975 H   0  0  0  0  0  0  0  0  0  0  0  0
   -0.4271   -1.3788   -1.6831 C   0  0  2  0  0  3  0  0  0  0  0  0
   -0.4701   -2.7410   -2.3486 C   0  0  0  0  0  0  0  0  0  0  0  0
   -0.5789   -2.5884   -3.4481 H   0  0  0  0  0  0  0  0  0  0  0  0
    0.4603   -3.3263   -2.2044 H   0  0  0  0  0  0  0  0  0  0  0  0
   -1.7215   -3.4156   -1.7530 C   0  0  0  0  0  0  0  0  0  0  0  0
   -1.4463   -3.9290   -0.8095 H   0  0  0  0  0  0  0  0  0  0  0  0
   -2.1704   -4.1722   -2.4242 H   0  0  0  0  0  0  0  0  0  0  0  0
   -2.6823   -2.2478   -1.4357 C   0  0  0  0  0  0  0  0  0  0  0  0
   -3.2865   -1.9821   -2.3325 H   0  0  0  0  0  0  0  0  0  0  0  0
   -3.3907   -2.4604   -0.6112 H   0  0  0  0  0  0  0  0  0  0  0  0
   -1.7272   -1.1039   -1.1367 C   0  0  1  0  0  3  0  0  0  0  0  0
   -1.8401   -0.0155   -0.2098 C   0  0  0  0  0  2  0  0  0  0  0  0
   -2.6717    1.8020    1.1465 C   0  0  0  0  0  0  0  0  0  0  0  0
   -3.5227    1.5180    1.8031 H   0  0  0  0  0  0  0  0  0  0  0  0
   -1.7403    1.5111    1.6697 H   0  0  0  0  0  0  0  0  0  0  0  0
   -2.6926    3.2959    0.8471 C   0  0  0  0  0  0  0  0  0  0  0  0
   -2.5253    3.8563    1.7872 H   0  0  0  0  0  0  0  0  0  0  0  0
   -3.6624    3.6365    0.4338 H   0  0  0  0  0  0  0  0  0  0  0  0
   -1.8847    3.5746    0.1422 H   0  0  0  0  0  0  0  0  0  0  0  0
   -3.7834    1.1927   -1.0545 C   0  0  0  0  0  0  0  0  0  0  0  0
   -3.7445    2.2601   -1.3527 H   0  0  0  0  0  0  0  0  0  0  0  0
   -3.5234    0.5968   -1.9498 H   0  0  0  0  0  0  0  0  0  0  0  0
   -5.1705    0.8256   -0.5356 C   0  0  0  0  0  0  0  0  0  0  0  0
   -5.9225    0.9921   -1.3315 H   0  0  0  0  0  0  0  0  0  0  0  0
   -5.4687    1.4439    0.3341 H   0  0  0  0  0  0  0  0  0  0  0  0
   -5.2175   -0.2410   -0.2376 H   0  0  0  0  0  0  0  0  0  0  0  0
  1 14  1  0  0  0  0
  1  3  1  0  0  0  0
  2 40  1  0  0  0  0
  3  4  1  0  0  0  0
  4  6  2  0  0  0  0
  4  5  1  0  0  0  0
  6  7  1  0  0  0  0
  8  9  1  0  0  0  0
  8  6  1  0  0  0  0
 10  8  2  0  0  0  0
 11 10  1  0  0  0  0
 12 10  1  0  0  0  0
 12  3  2  0  0  0  0
 13 12  1  0  0  0  0
 14 15  1  0  0  0  0
 15 17  2  0  0  0  0
 15 16  1  0  0  0  0
 17 18  1  0  0  0  0
 19 20  1  0  0  0  0
 19 17  1  0  0  0  0
 21 19  2  0  0  0  0
 22 21  1  0  0  0  0
 23 21  1  0  0  0  0
 23 14  2  0  0  0  0
 24 23  1  0  0  0  0
 25  1  1  0  0  0  0
 26 25  1  0  0  0  0
 27 25  1  0  0  0  0
 28 25  1  6  0  0  0
 28 38  1  0  0  0  0
 29 31  1  0  0  0  0
 29 32  1  0  0  0  0
 29 28  1  0  0  0  0
 30 29  1  0  0  0  0
 32 35  1  0  0  0  0
 32 33  1  0  0  0  0
 34 32  1  0  0  0  0
 35 38  1  0  0  0  0
 35 37  1  0  0  0  0
 36 35  1  0  0  0  0
 38 39  1  1  0  0  0
 39  2  1  0  0  0  0
 40 42  1  0  0  0  0
 40 41  1  0  0  0  0
 43 40  1  0  0  0  0
 43 44  1  0  0  0  0
 45 43  1  0  0  0  0
 46 43  1  0  0  0  0
 47 50  1  0  0  0  0
 47  2  1  0  0  0  0
 48 47  1  0  0  0  0
 49 47  1  0  0  0  0
 50 53  1  0  0  0  0
 50 52  1  0  0  0  0
 51 50  1  0  0  0  0
M  END
