5
 OpenBabel05122313113D

 30 31  0  0  0  0  0  0  0  0999 V2000
    1.1706   -2.1687   -1.4362 O   0  0  0  0  0  0  0  0  0  0  0  0
    0.8172   -3.9970   -0.0996 O   0  0  0  0  0  0  0  0  0  0  0  0
   -5.1000   -1.8499   -1.4498 O   0  0  0  0  0  0  0  0  0  0  0  0
    2.3799    0.1537   -0.9846 N   0  0  0  0  0  2  0  0  0  0  0  0
    1.7033    1.1167   -0.8718 C   0  0  0  0  0  1  0  0  0  0  0  0
    3.1689   -0.9526   -1.1498 C   0  0  0  0  0  0  0  0  0  0  0  0
    4.5742   -0.8533   -1.1284 C   0  0  0  0  0  0  0  0  0  0  0  0
    5.0290    0.1336   -0.9660 H   0  0  0  0  0  0  0  0  0  0  0  0
    5.3430   -2.0077   -1.3148 C   0  0  0  0  0  0  0  0  0  0  0  0
    6.4402   -1.9367   -1.3028 H   0  0  0  0  0  0  0  0  0  0  0  0
    4.7166   -3.2503   -1.5163 C   0  0  0  0  0  0  0  0  0  0  0  0
    5.3259   -4.1542   -1.6637 H   0  0  0  0  0  0  0  0  0  0  0  0
    3.3165   -3.3585   -1.5356 C   0  0  0  0  0  0  0  0  0  0  0  0
    2.8221   -4.3257   -1.6877 H   0  0  0  0  0  0  0  0  0  0  0  0
    2.5382   -2.2068   -1.3587 C   0  0  0  0  0  0  0  0  0  0  0  0
    0.3665   -3.0783   -0.7572 C   0  0  0  0  0  0  0  0  0  0  0  0
   -1.0577   -2.7396   -0.9435 C   0  0  0  0  0  0  0  0  0  0  0  0
   -2.0230   -3.5602   -0.3264 C   0  0  0  0  0  0  0  0  0  0  0  0
   -1.6775   -4.4191    0.2678 H   0  0  0  0  0  0  0  0  0  0  0  0
   -3.3883   -3.2956   -0.4649 C   0  0  0  0  0  0  0  0  0  0  0  0
   -4.1188   -3.9505    0.0273 H   0  0  0  0  0  0  0  0  0  0  0  0
   -3.8086   -2.1908   -1.2409 C   0  0  0  0  0  0  0  0  0  0  0  0
   -6.1206   -2.6513   -0.8773 C   0  0  0  0  0  0  0  0  0  0  0  0
   -6.0829   -3.6954   -1.2584 H   0  0  0  0  0  0  0  0  0  0  0  0
   -7.0799   -2.1902   -1.1750 H   0  0  0  0  0  0  0  0  0  0  0  0
   -6.0551   -2.6645    0.2323 H   0  0  0  0  0  0  0  0  0  0  0  0
   -2.8438   -1.3588   -1.8574 C   0  0  0  0  0  0  0  0  0  0  0  0
   -3.1970   -0.5028   -2.4489 H   0  0  0  0  0  0  0  0  0  0  0  0
   -1.4876   -1.6263   -1.7069 C   0  0  0  0  0  0  0  0  0  0  0  0
   -0.7432   -0.9723   -2.1803 H   0  0  0  0  0  0  0  0  0  0  0  0
  1 15  1  0  0  0  0
  1 16  1  0  0  0  0
  3 22  1  0  0  0  0
  3 23  1  0  0  0  0
  4  5  1  0  0  0  0
  6  7  1  0  0  0  0
  6  4  1  0  0  0  0
  7  8  1  0  0  0  0
  9 10  1  0  0  0  0
  9  7  2  0  0  0  0
 11  9  1  0  0  0  0
 12 11  1  0  0  0  0
 13 11  2  0  0  0  0
 13 15  1  0  0  0  0
 14 13  1  0  0  0  0
 15  6  2  0  0  0  0
 16  2  2  0  0  0  0
 17 16  1  0  0  0  0
 17 18  1  0  0  0  0
 18 19  1  0  0  0  0
 20 18  2  0  0  0  0
 20 21  1  0  0  0  0
 22 20  1  0  0  0  0
 23 26  1  0  0  0  0
 24 23  1  0  0  0  0
 25 23  1  0  0  0  0
 27 29  1  0  0  0  0
 27 22  2  0  0  0  0
 28 27  1  0  0  0  0
 29 17  2  0  0  0  0
 30 29  1  0  0  0  0
M  END
