10
 OpenBabel05122313113D

 20 20  0  0  1  0  0  0  0  0999 V2000
   -4.8862    0.2820   -1.2141 O   0  0  0  0  0  0  0  0  0  0  0  0
   -1.6410    3.6236   -0.2322 O   0  0  0  0  0  0  0  0  0  0  0  0
   -4.0606    0.2491    1.5847 O   0  0  0  0  0  0  0  0  0  0  0  0
   -3.5276    0.4950   -0.8130 C   0  0  1  0  0  0  0  0  0  0  0  0
   -2.8467    0.0866   -1.5879 H   0  0  0  0  0  0  0  0  0  0  0  0
   -3.3149    1.9962   -0.7052 C   0  0  0  0  0  0  0  0  0  0  0  0
   -3.4241    2.4921   -1.6885 H   0  0  0  0  0  0  0  0  0  0  0  0
   -4.1174    2.3959   -0.0462 H   0  0  0  0  0  0  0  0  0  0  0  0
   -2.0083    2.4567   -0.0612 C   0  0  0  0  0  0  0  0  0  0  0  0
   -1.2914    1.5022    0.8167 C   0  0  0  0  0  3  0  0  0  0  0  0
   -1.7825    0.1393    0.9943 C   0  0  0  0  0  3  0  0  0  0  0  0
   -3.1942   -0.1827    0.5292 C   0  0  1  0  0  0  0  0  0  0  0  0
   -3.3332   -1.2884    0.4063 H   0  0  0  0  0  0  0  0  0  0  0  0
   -5.2949   -0.4293    1.6831 C   0  0  0  0  0  0  0  0  0  0  0  0
   -5.7629   -0.1205    2.6397 H   0  0  0  0  0  0  0  0  0  0  0  0
   -5.1517   -1.5400    1.7099 H   0  0  0  0  0  0  0  0  0  0  0  0
   -5.9813   -0.1909    0.8434 H   0  0  0  0  0  0  0  0  0  0  0  0
   -4.9433   -0.6271   -1.5594 H   0  0  0  0  0  0  0  0  0  0  0  0
   -0.7369    1.9909    1.6368 H   0  0  0  0  0  0  0  0  0  0  0  0
   -1.6411   -0.2714    2.0105 H   0  0  0  0  0  0  0  0  0  0  0  0
  1  4  1  0  0  0  0
  2  9  2  0  0  0  0
  3 14  1  0  0  0  0
  4  5  1  6  0  0  0
  4  6  1  0  0  0  0
  4 12  1  0  0  0  0
  6  9  1  0  0  0  0
  6  8  1  0  0  0  0
  7  6  1  0  0  0  0
  9 10  1  0  0  0  0
 10 11  1  0  0  0  0
 10 19  1  0  0  0  0
 11 20  1  0  0  0  0
 12 13  1  6  0  0  0
 12 11  1  0  0  0  0
 12  3  1  0  0  0  0
 14 16  1  0  0  0  0
 14 15  1  0  0  0  0
 17 14  1  0  0  0  0
 18  1  1  0  0  0  0
M  END
