5
 OpenBabel05122313113D

 41 42  0  0  0  0  0  0  0  0999 V2000
    1.5550    0.7941   -0.9058 N   0  0  0  0  0  0  0  0  0  0  0  0
   -0.5513    1.4043   -0.8659 N   0  0  0  0  0  0  0  0  0  0  0  0
    5.9629   -1.4044    2.8589 N   0  0  0  0  0  0  0  0  0  0  0  0
   -7.1527    0.8286    2.3408 N   0  0  0  0  0  0  0  0  0  0  0  0
    0.2734    0.3091   -0.8856 C   0  0  0  0  0  2  0  0  0  0  0  0
    1.5545    2.1893   -0.8730 C   0  0  0  0  0  0  0  0  0  0  0  0
    2.5863    3.1398   -0.8711 C   0  0  0  0  0  0  0  0  0  0  0  0
    3.6442    2.8441   -0.8952 H   0  0  0  0  0  0  0  0  0  0  0  0
    2.2126    4.4913   -0.8330 C   0  0  0  0  0  0  0  0  0  0  0  0
    2.9955    5.2636   -0.8285 H   0  0  0  0  0  0  0  0  0  0  0  0
    0.8554    4.8819   -0.7994 C   0  0  0  0  0  0  0  0  0  0  0  0
    0.6034    5.9519   -0.7680 H   0  0  0  0  0  0  0  0  0  0  0  0
   -0.1788    3.9345   -0.8045 C   0  0  0  0  0  0  0  0  0  0  0  0
   -1.2335    4.2419   -0.7765 H   0  0  0  0  0  0  0  0  0  0  0  0
    0.1928    2.5827   -0.8429 C   0  0  0  0  0  0  0  0  0  0  0  0
    2.7459   -0.0585   -0.8945 C   0  0  0  0  0  0  0  0  0  0  0  0
    3.5895    0.5523   -1.2724 H   0  0  0  0  0  0  0  0  0  0  0  0
    2.5721   -0.8775   -1.6197 H   0  0  0  0  0  0  0  0  0  0  0  0
    3.0582   -0.6440    0.4849 C   0  0  0  0  0  0  0  0  0  0  0  0
    3.9825   -1.2528    0.3888 H   0  0  0  0  0  0  0  0  0  0  0  0
    2.2432   -1.3504    0.7564 H   0  0  0  0  0  0  0  0  0  0  0  0
    3.2298    0.3992    1.5902 C   0  0  0  0  0  0  0  0  0  0  0  0
    4.0038    1.1438    1.3050 H   0  0  0  0  0  0  0  0  0  0  0  0
    2.2851    0.9656    1.7290 H   0  0  0  0  0  0  0  0  0  0  0  0
    3.6087   -0.2247    2.9481 C   0  0  0  0  0  0  0  0  0  0  0  0
    2.8438   -0.9705    3.2554 H   0  0  0  0  0  0  0  0  0  0  0  0
    3.6282    0.5522    3.7410 H   0  0  0  0  0  0  0  0  0  0  0  0
    4.9138   -0.8872    2.9225 C   0  0  0  0  0  0  0  0  0  0  0  0
   -2.0059    1.3184   -0.7873 C   0  0  0  0  0  0  0  0  0  0  0  0
   -2.3119    0.4372   -1.3861 H   0  0  0  0  0  0  0  0  0  0  0  0
   -2.4277    2.2199   -1.2764 H   0  0  0  0  0  0  0  0  0  0  0  0
   -2.5064    1.1785    0.6526 C   0  0  0  0  0  0  0  0  0  0  0  0
   -2.1469    2.0406    1.2563 H   0  0  0  0  0  0  0  0  0  0  0  0
   -2.0438    0.2656    1.0872 H   0  0  0  0  0  0  0  0  0  0  0  0
   -4.0303    1.0803    0.7258 C   0  0  0  0  0  0  0  0  0  0  0  0
   -4.4960    1.9988    0.3089 H   0  0  0  0  0  0  0  0  0  0  0  0
   -4.3858    0.2371    0.0967 H   0  0  0  0  0  0  0  0  0  0  0  0
   -4.5254    0.8724    2.1698 C   0  0  0  0  0  0  0  0  0  0  0  0
   -4.1461    1.6836    2.8288 H   0  0  0  0  0  0  0  0  0  0  0  0
   -4.1201   -0.0774    2.5810 H   0  0  0  0  0  0  0  0  0  0  0  0
   -5.9834    0.8411    2.2780 C   0  0  0  0  0  0  0  0  0  0  0  0
  1 16  1  0  0  0  0
  1  5  1  0  0  0  0
  1  6  1  0  0  0  0
  2 15  1  0  0  0  0
  2 29  1  0  0  0  0
  3 28  3  0  0  0  0
  5  2  1  0  0  0  0
  6  7  2  0  0  0  0
  6 15  1  0  0  0  0
  7  9  1  0  0  0  0
  8  7  1  0  0  0  0
  9 10  1  0  0  0  0
  9 11  2  0  0  0  0
 11 12  1  0  0  0  0
 13 11  1  0  0  0  0
 13 14  1  0  0  0  0
 15 13  2  0  0  0  0
 16 19  1  0  0  0  0
 17 16  1  0  0  0  0
 18 16  1  0  0  0  0
 19 21  1  0  0  0  0
 19 22  1  0  0  0  0
 20 19  1  0  0  0  0
 22 24  1  0  0  0  0
 22 25  1  0  0  0  0
 23 22  1  0  0  0  0
 25 26  1  0  0  0  0
 25 27  1  0  0  0  0
 28 25  1  0  0  0  0
 29 32  1  0  0  0  0
 30 29  1  0  0  0  0
 31 29  1  0  0  0  0
 32 35  1  0  0  0  0
 32 34  1  0  0  0  0
 32 33  1  0  0  0  0
 35 38  1  0  0  0  0
 36 35  1  0  0  0  0
 37 35  1  0  0  0  0
 38 41  1  0  0  0  0
 38 40  1  0  0  0  0
 38 39  1  0  0  0  0
 41  4  3  0  0  0  0
M  END
