5
 OpenBabel05122313113D

 44 45  0  0  0  0  0  0  0  0999 V2000
   -0.4321    1.0454   -0.0178 N   0  0  0  0  0  0  0  0  0  0  0  0
    1.4696    0.6869   -1.0499 N   0  0  0  0  0  0  0  0  0  0  0  0
    6.1789    2.0828    2.8620 N   0  0  0  0  0  0  0  0  0  0  0  0
   -7.9454    1.0591   -0.2750 N   0  0  0  0  0  0  0  0  0  0  0  0
    0.4147    0.0555   -0.4420 C   0  0  0  0  0  2  0  0  0  0  0  0
    1.3019    2.0719   -1.0147 C   0  0  0  0  0  0  0  0  0  0  0  0
    2.0883    3.1370   -1.4782 C   0  0  0  0  0  0  0  0  0  0  0  0
    3.0527    2.9693   -1.9770 H   0  0  0  0  0  0  0  0  0  0  0  0
    1.5949    4.4338   -1.2734 C   0  0  0  0  0  0  0  0  0  0  0  0
    2.1854    5.2930   -1.6231 H   0  0  0  0  0  0  0  0  0  0  0  0
    0.3589    4.6609   -0.6278 C   0  0  0  0  0  0  0  0  0  0  0  0
    0.0062    5.6931   -0.4882 H   0  0  0  0  0  0  0  0  0  0  0  0
   -0.4283    3.5986   -0.1602 C   0  0  0  0  0  0  0  0  0  0  0  0
   -1.3910    3.7775    0.3385 H   0  0  0  0  0  0  0  0  0  0  0  0
    0.0655    2.3013   -0.3605 C   0  0  0  0  0  0  0  0  0  0  0  0
   -1.7257    0.7946    0.6102 C   0  0  0  0  0  0  0  0  0  0  0  0
   -1.8985    1.6021    1.3500 H   0  0  0  0  0  0  0  0  0  0  0  0
   -1.6303   -0.1593    1.1677 H   0  0  0  0  0  0  0  0  0  0  0  0
   -2.8620    0.6992   -0.4136 C   0  0  0  0  0  0  0  0  0  0  0  0
   -2.5753   -0.0701   -1.1608 H   0  0  0  0  0  0  0  0  0  0  0  0
   -2.9475    1.6621   -0.9634 H   0  0  0  0  0  0  0  0  0  0  0  0
   -4.2132    0.3242    0.2032 C   0  0  0  0  0  0  0  0  0  0  0  0
   -4.9481    0.1942   -0.6193 H   0  0  0  0  0  0  0  0  0  0  0  0
   -4.1307   -0.6696    0.6970 H   0  0  0  0  0  0  0  0  0  0  0  0
   -4.7650    1.3466    1.2029 C   0  0  0  0  0  0  0  0  0  0  0  0
   -4.7690    2.3590    0.7437 H   0  0  0  0  0  0  0  0  0  0  0  0
   -4.1165    1.4103    2.1020 H   0  0  0  0  0  0  0  0  0  0  0  0
   -6.1899    1.0118    1.6894 C   0  0  0  0  0  0  0  0  0  0  0  0
   -6.2090    0.0050    2.1602 H   0  0  0  0  0  0  0  0  0  0  0  0
   -6.5136    1.7302    2.4718 H   0  0  0  0  0  0  0  0  0  0  0  0
    2.6296   -0.0225   -1.5908 C   0  0  0  0  0  0  0  0  0  0  0  0
    3.1197    0.6529   -2.3201 H   0  0  0  0  0  0  0  0  0  0  0  0
    2.2472   -0.9005   -2.1474 H   0  0  0  0  0  0  0  0  0  0  0  0
    3.6098   -0.4814   -0.5076 C   0  0  0  0  0  0  0  0  0  0  0  0
    3.0785   -1.2024    0.1519 H   0  0  0  0  0  0  0  0  0  0  0  0
    4.4192   -1.0562   -1.0069 H   0  0  0  0  0  0  0  0  0  0  0  0
    4.2040    0.6561    0.3236 C   0  0  0  0  0  0  0  0  0  0  0  0
    3.3932    1.2477    0.7981 H   0  0  0  0  0  0  0  0  0  0  0  0
    4.7614    1.3624   -0.3285 H   0  0  0  0  0  0  0  0  0  0  0  0
    5.1454    0.1331    1.4252 C   0  0  0  0  0  0  0  0  0  0  0  0
    4.5974   -0.5599    2.0998 H   0  0  0  0  0  0  0  0  0  0  0  0
    5.9733   -0.4604    0.9800 H   0  0  0  0  0  0  0  0  0  0  0  0
    5.7276    1.2039    2.2331 C   0  0  0  0  0  0  0  0  0  0  0  0
   -7.1806    1.0323    0.6118 C   0  0  0  0  0  0  0  0  0  0  0  0
  1 16  1  0  0  0  0
  2  6  1  0  0  0  0
  2  5  1  0  0  0  0
  4 44  3  0  0  0  0
  5  1  1  0  0  0  0
  6 15  1  0  0  0  0
  7  9  1  0  0  0  0
  7  6  2  0  0  0  0
  8  7  1  0  0  0  0
  9 11  2  0  0  0  0
 10  9  1  0  0  0  0
 11 12  1  0  0  0  0
 11 13  1  0  0  0  0
 13 14  1  0  0  0  0
 15 13  2  0  0  0  0
 15  1  1  0  0  0  0
 16 18  1  0  0  0  0
 16 17  1  0  0  0  0
 19 22  1  0  0  0  0
 19 16  1  0  0  0  0
 20 19  1  0  0  0  0
 21 19  1  0  0  0  0
 22 24  1  0  0  0  0
 22 25  1  0  0  0  0
 23 22  1  0  0  0  0
 25 28  1  0  0  0  0
 25 27  1  0  0  0  0
 26 25  1  0  0  0  0
 28 29  1  0  0  0  0
 28 30  1  0  0  0  0
 31  2  1  0  0  0  0
 31 34  1  0  0  0  0
 32 31  1  0  0  0  0
 33 31  1  0  0  0  0
 34 35  1  0  0  0  0
 34 37  1  0  0  0  0
 36 34  1  0  0  0  0
 37 38  1  0  0  0  0
 37 40  1  0  0  0  0
 39 37  1  0  0  0  0
 40 41  1  0  0  0  0
 40 43  1  0  0  0  0
 42 40  1  0  0  0  0
 43  3  3  0  0  0  0
 44 28  1  0  0  0  0
M  END
