6
 OpenBabel05122313113D

 33 34  0  0  0  0  0  0  0  0999 V2000
    1.0898    2.3372   -0.5665 N   0  0  0  0  0  0  0  0  0  0  0  0
   -0.9732    2.0965    0.0616 N   0  0  0  0  0  0  0  0  0  0  0  0
   -2.5838    0.6493   -1.8423 N   0  0  0  0  0  0  0  0  0  0  0  0
   -1.5747    0.6350   -2.0535 H   0  0  0  0  0  0  0  0  0  0  0  0
   -3.0900   -0.0509   -2.3853 H   0  0  0  0  0  0  0  0  0  0  0  0
    0.1583    1.3781   -0.2631 C   0  0  0  0  0  2  0  0  0  0  0  0
    0.5649    3.6146   -0.4156 C   0  0  0  0  0  0  0  0  0  0  0  0
    1.1585    4.5126   -0.6095 H   0  0  0  0  0  0  0  0  0  0  0  0
   -0.7388    3.4677   -0.0271 C   0  0  0  0  0  0  0  0  0  0  0  0
   -1.5253    4.1990    0.1763 H   0  0  0  0  0  0  0  0  0  0  0  0
    2.4373    2.0530   -1.0772 C   0  0  0  0  0  0  0  0  0  0  0  0
    2.8698    3.0290   -1.3761 H   0  0  0  0  0  0  0  0  0  0  0  0
    2.3110    1.4303   -1.9865 H   0  0  0  0  0  0  0  0  0  0  0  0
    3.3368    1.3421   -0.0683 C   0  0  0  0  0  0  0  0  0  0  0  0
    4.3190    1.1729   -0.5605 H   0  0  0  0  0  0  0  0  0  0  0  0
    2.9035    0.3328    0.1132 H   0  0  0  0  0  0  0  0  0  0  0  0
    3.5286    2.0885    1.2530 C   0  0  0  0  0  0  0  0  0  0  0  0
    3.9496    3.0994    1.0502 H   0  0  0  0  0  0  0  0  0  0  0  0
    2.5333    2.2664    1.7172 H   0  0  0  0  0  0  0  0  0  0  0  0
    4.4261    1.3414    2.2400 C   0  0  0  0  0  0  0  0  0  0  0  0
    4.0005    0.3487    2.4950 H   0  0  0  0  0  0  0  0  0  0  0  0
    4.5531    1.9038    3.1868 H   0  0  0  0  0  0  0  0  0  0  0  0
    5.4367    1.1666    1.8153 H   0  0  0  0  0  0  0  0  0  0  0  0
   -2.2442    1.5360    0.4201 C   0  0  0  0  0  0  0  0  0  0  0  0
   -2.9981    0.8037   -0.5426 C   0  0  0  0  0  0  0  0  0  0  0  0
   -4.2462    0.2830   -0.1054 C   0  0  0  0  0  0  0  0  0  0  0  0
   -4.8464   -0.2993   -0.8222 H   0  0  0  0  0  0  0  0  0  0  0  0
   -4.7231    0.4997    1.1890 C   0  0  0  0  0  0  0  0  0  0  0  0
   -5.6966    0.0763    1.4799 H   0  0  0  0  0  0  0  0  0  0  0  0
   -3.9746    1.2466    2.1166 C   0  0  0  0  0  0  0  0  0  0  0  0
   -4.3459    1.4184    3.1365 H   0  0  0  0  0  0  0  0  0  0  0  0
   -2.7339    1.7575    1.7165 C   0  0  0  0  0  0  0  0  0  0  0  0
   -2.1063    2.3288    2.4172 H   0  0  0  0  0  0  0  0  0  0  0  0
  1  7  1  0  0  0  0
  1  6  1  0  0  0  0
  2 24  1  0  0  0  0
  3 25  1  0  0  0  0
  4  3  1  0  0  0  0
  5  3  1  0  0  0  0
  6  2  1  0  0  0  0
  7  9  2  0  0  0  0
  8  7  1  0  0  0  0
  9  2  1  0  0  0  0
  9 10  1  0  0  0  0
 11  1  1  0  0  0  0
 11 14  1  0  0  0  0
 12 11  1  0  0  0  0
 13 11  1  0  0  0  0
 14 16  1  0  0  0  0
 14 17  1  0  0  0  0
 15 14  1  0  0  0  0
 17 19  1  0  0  0  0
 17 20  1  0  0  0  0
 18 17  1  0  0  0  0
 20 21  1  0  0  0  0
 20 22  1  0  0  0  0
 23 20  1  0  0  0  0
 24 32  1  0  0  0  0
 25 26  1  0  0  0  0
 25 24  2  0  0  0  0
 26 28  2  0  0  0  0
 27 26  1  0  0  0  0
 28 29  1  0  0  0  0
 28 30  1  0  0  0  0
 30 31  1  0  0  0  0
 32 30  2  0  0  0  0
 32 33  1  0  0  0  0
M  END
