5
 OpenBabel05122313113D

 10  9  0  0  0  0  0  0  0  0999 V2000
    3.2938   -0.8088    1.1424 O   0  0  0  0  0  0  0  0  0  0  0  0
   -0.3684   -2.7115    0.0046 C   0  0  0  0  0  3  0  0  0  0  0  0
   -1.2730   -3.2070   -0.3818 H   0  0  0  0  0  0  0  0  0  0  0  0
   -0.1833   -2.8613    1.0818 H   0  0  0  0  0  0  0  0  0  0  0  0
    0.6904   -2.4643   -0.9095 C   0  0  0  0  0  3  0  0  0  0  0  0
    0.5407   -2.6991   -1.9782 H   0  0  0  0  0  0  0  0  0  0  0  0
    1.8551   -1.7060   -0.5524 C   0  0  0  0  0  3  0  0  0  0  0  0
    2.5391   -1.3896   -1.3566 H   0  0  0  0  0  0  0  0  0  0  0  0
    2.3463   -1.5384    0.8161 C   0  0  0  0  0  0  0  0  0  0  0  0
    1.8146   -2.1500    1.6017 H   0  0  0  0  0  0  0  0  0  0  0  0
  2  4  1  0  0  0  0
  3  2  1  0  0  0  0
  5  7  1  0  0  0  0
  5  2  1  0  0  0  0
  6  5  1  0  0  0  0
  7  9  1  0  0  0  0
  8  7  1  0  0  0  0
  9  1  2  0  0  0  0
  9 10  1  0  0  0  0
M  END
