2
 OpenBabel05122313113D

 37 39  0  0  0  0  0  0  0  0999 V2000
    2.7845   -0.4131   -0.5156 P   0  0  0  0  0  4  0  0  0  0  0  0
    1.2173    0.3768   -0.0745 C   0  0  0  0  0  3  0  0  0  0  0  0
    1.2822    1.8795   -0.1822 C   0  0  0  0  0  0  0  0  0  0  0  0
    1.5107    2.5524   -1.4030 C   0  0  0  0  0  0  0  0  0  0  0  0
    1.5402    3.9528   -1.4664 C   0  0  0  0  0  0  0  0  0  0  0  0
    1.3418    4.7187   -0.3061 C   0  0  0  0  0  0  0  0  0  0  0  0
    1.1416    4.0666    0.9205 C   0  0  0  0  0  0  0  0  0  0  0  0
    1.1255    2.6658    0.9827 C   0  0  0  0  0  0  0  0  0  0  0  0
    4.2742    0.5033   -0.0260 C   0  0  0  0  0  0  0  0  0  0  0  0
    5.4034    0.5154   -0.8697 C   0  0  0  0  0  0  0  0  0  0  0  0
    6.5617    1.1964   -0.4701 C   0  0  0  0  0  0  0  0  0  0  0  0
    6.5940    1.8627    0.7657 C   0  0  0  0  0  0  0  0  0  0  0  0
    5.4677    1.8528    1.6048 C   0  0  0  0  0  0  0  0  0  0  0  0
    4.3046    1.1765    1.2133 C   0  0  0  0  0  0  0  0  0  0  0  0
    2.8691   -2.0898    0.1574 C   0  0  0  0  0  0  0  0  0  0  0  0
    2.9279   -3.2082   -0.6967 C   0  0  0  0  0  0  0  0  0  0  0  0
    2.9622   -4.4976   -0.1478 C   0  0  0  0  0  0  0  0  0  0  0  0
    2.9406   -4.6707    1.2448 C   0  0  0  0  0  0  0  0  0  0  0  0
    2.8866   -3.5545    2.0950 C   0  0  0  0  0  0  0  0  0  0  0  0
    2.8530   -2.2615    1.5568 C   0  0  0  0  0  0  0  0  0  0  0  0
    2.9270   -0.5772   -1.9201 H   0  0  0  0  0  0  0  0  0  0  0  0
    0.9774    2.1692    1.9525 H   0  0  0  0  0  0  0  0  0  0  0  0
    2.8182   -1.3897    2.2290 H   0  0  0  0  0  0  0  0  0  0  0  0
    3.0046   -5.3727   -0.8127 H   0  0  0  0  0  0  0  0  0  0  0  0
    1.0000    4.6508    1.8423 H   0  0  0  0  0  0  0  0  0  0  0  0
    1.7188    4.4498   -2.4318 H   0  0  0  0  0  0  0  0  0  0  0  0
    2.8721   -3.6920    3.1862 H   0  0  0  0  0  0  0  0  0  0  0  0
    5.3820   -0.0051   -1.8403 H   0  0  0  0  0  0  0  0  0  0  0  0
    2.9383   -3.0744   -1.7892 H   0  0  0  0  0  0  0  0  0  0  0  0
    3.4184    1.1894    1.8651 H   0  0  0  0  0  0  0  0  0  0  0  0
    5.4924    2.3824    2.5686 H   0  0  0  0  0  0  0  0  0  0  0  0
    7.5035    2.3987    1.0753 H   0  0  0  0  0  0  0  0  0  0  0  0
    1.3573    5.8174   -0.3566 H   0  0  0  0  0  0  0  0  0  0  0  0
    1.1156    0.1118    0.9990 H   0  0  0  0  0  0  0  0  0  0  0  0
    1.6650    1.9760   -2.3250 H   0  0  0  0  0  0  0  0  0  0  0  0
    2.9650   -5.6842    1.6717 H   0  0  0  0  0  0  0  0  0  0  0  0
    7.4429    1.2088   -1.1284 H   0  0  0  0  0  0  0  0  0  0  0  0
  1  2  1  0  0  0  0
  1  9  1  0  0  0  0
  1 15  1  0  0  0  0
  2 34  1  0  0  0  0
  3  2  1  0  0  0  0
  3  8  1  0  0  0  0
  4  3  2  0  0  0  0
  5  4  1  0  0  0  0
  5  6  2  0  0  0  0
  6  7  1  0  0  0  0
  7  8  2  0  0  0  0
  7 25  1  0  0  0  0
  8 22  1  0  0  0  0
  9 14  1  0  0  0  0
 10 11  1  0  0  0  0
 10  9  2  0  0  0  0
 11 12  2  0  0  0  0
 12 32  1  0  0  0  0
 12 13  1  0  0  0  0
 13 31  1  0  0  0  0
 14 13  2  0  0  0  0
 14 30  1  0  0  0  0
 15 20  1  0  0  0  0
 16 17  1  0  0  0  0
 16 15  2  0  0  0  0
 17 18  2  0  0  0  0
 18 36  1  0  0  0  0
 18 19  1  0  0  0  0
 19 27  1  0  0  0  0
 20 19  2  0  0  0  0
 20 23  1  0  0  0  0
 21  1  1  0  0  0  0
 24 17  1  0  0  0  0
 26  5  1  0  0  0  0
 28 10  1  0  0  0  0
 29 16  1  0  0  0  0
 33  6  1  0  0  0  0
 35  4  1  0  0  0  0
 37 11  1  0  0  0  0
M  END
