19
 OpenBabel05122313113D

 39 41  0  0  0  0  0  0  0  0999 V2000
    6.9642   -0.3019   -1.8771 C   0  0  0  0  0  0  0  0  0  0  0  0
    7.2282   -0.3145   -2.9507 H   0  0  0  0  0  0  0  0  0  0  0  0
    7.9596    0.0202   -0.9132 C   0  0  0  0  0  0  0  0  0  0  0  0
    8.9832    0.2599   -1.2372 H   0  0  0  0  0  0  0  0  0  0  0  0
    7.6077    0.0172    0.4269 C   0  0  0  0  0  0  0  0  0  0  0  0
    8.3439    0.2573    1.2105 H   0  0  0  0  0  0  0  0  0  0  0  0
    6.2701   -0.2909    0.8021 C   0  0  0  0  0  0  0  0  0  0  0  0
    5.8206   -0.2871    2.1529 C   0  0  0  0  0  0  0  0  0  0  0  0
    6.5372   -0.0489    2.9545 H   0  0  0  0  0  0  0  0  0  0  0  0
    4.4914   -0.5574    2.4393 C   0  0  0  0  0  0  0  0  0  0  0  0
    4.1297   -0.5334    3.4781 H   0  0  0  0  0  0  0  0  0  0  0  0
    3.5704   -0.8607    1.4016 C   0  0  0  0  0  0  0  0  0  0  0  0
    2.5174   -1.0487    1.6673 H   0  0  0  0  0  0  0  0  0  0  0  0
    3.9738   -0.8981    0.0697 C   0  0  0  0  0  0  0  0  0  0  0  0
    5.3385   -0.5961   -0.2582 C   0  0  0  0  0  0  0  0  0  0  0  0
    3.0163   -1.2352   -1.0551 C   0  0  0  0  0  0  0  0  0  0  0  0
    3.5874   -1.6241   -1.9183 H   0  0  0  0  0  0  0  0  0  0  0  0
    2.4699   -0.3361   -1.4114 H   0  0  0  0  0  0  0  0  0  0  0  0
    0.7800   -1.8576   -0.1555 C   0  0  0  0  0  2  0  0  0  0  0  0
    2.1943   -3.5763   -0.6013 C   0  0  0  0  0  0  0  0  0  0  0  0
    3.1184   -4.0497   -0.9446 H   0  0  0  0  0  0  0  0  0  0  0  0
    1.0515   -4.1067   -0.0592 C   0  0  0  0  0  0  0  0  0  0  0  0
    0.7701   -5.1422    0.1530 H   0  0  0  0  0  0  0  0  0  0  0  0
   -1.1223   -3.1331    0.8199 C   0  0  0  0  0  0  0  0  0  0  0  0
   -1.1875   -4.1213    1.3188 H   0  0  0  0  0  0  0  0  0  0  0  0
   -1.1636   -2.3512    1.6065 H   0  0  0  0  0  0  0  0  0  0  0  0
   -2.2573   -2.9510   -0.1872 C   0  0  0  0  0  0  0  0  0  0  0  0
   -2.2099   -3.7589   -0.9507 H   0  0  0  0  0  0  0  0  0  0  0  0
   -2.0951   -1.9940   -0.7309 H   0  0  0  0  0  0  0  0  0  0  0  0
   -3.6313   -2.9397    0.4887 C   0  0  0  0  0  0  0  0  0  0  0  0
   -3.6987   -2.0535    1.1579 H   0  0  0  0  0  0  0  0  0  0  0  0
   -3.7275   -3.8269    1.1549 H   0  0  0  0  0  0  0  0  0  0  0  0
   -4.7862   -2.9187   -0.5114 C   0  0  0  0  0  0  0  0  0  0  0  0
   -4.8021   -3.8424   -1.1272 H   0  0  0  0  0  0  0  0  0  0  0  0
   -5.7674   -2.8330   -0.0026 H   0  0  0  0  0  0  0  0  0  0  0  0
   -4.6952   -2.0596   -1.2052 H   0  0  0  0  0  0  0  0  0  0  0  0
    0.2067   -3.0386    0.2135 N   0  0  0  0  0  0  0  0  0  0  0  0
    2.0010   -2.2020   -0.6564 N   0  0  0  0  0  0  0  0  0  0  0  0
    5.7106   -0.6003   -1.5727 N   0  0  0  0  0  0  0  0  0  0  0  0
  1 39  2  0  0  0  0
  1  3  1  0  0  0  0
  2  1  1  0  0  0  0
  3  5  2  0  0  0  0
  4  3  1  0  0  0  0
  5  7  1  0  0  0  0
  5  6  1  0  0  0  0
  7  8  1  0  0  0  0
  8 10  2  0  0  0  0
  8  9  1  0  0  0  0
 10 11  1  0  0  0  0
 12 13  1  0  0  0  0
 12 10  1  0  0  0  0
 14 12  2  0  0  0  0
 15 14  1  0  0  0  0
 15  7  2  0  0  0  0
 16 38  1  0  0  0  0
 16 14  1  0  0  0  0
 17 16  1  0  0  0  0
 18 16  1  0  0  0  0
 19 37  1  0  0  0  0
 20 22  2  0  0  0  0
 21 20  1  0  0  0  0
 22 23  1  0  0  0  0
 22 37  1  0  0  0  0
 24 25  1  0  0  0  0
 24 26  1  0  0  0  0
 27 30  1  0  0  0  0
 27 24  1  0  0  0  0
 28 27  1  0  0  0  0
 29 27  1  0  0  0  0
 30 32  1  0  0  0  0
 30 31  1  0  0  0  0
 33 35  1  0  0  0  0
 33 30  1  0  0  0  0
 34 33  1  0  0  0  0
 36 33  1  0  0  0  0
 37 24  1  0  0  0  0
 38 20  1  0  0  0  0
 38 19  1  0  0  0  0
 39 15  1  0  0  0  0
M  END
