3
 OpenBabel05122313113D

 41 44  0  0  0  0  0  0  0  0999 V2000
   -0.9620   -1.0789    0.1796 N   0  0  0  0  0  0  0  0  0  0  0  0
   -0.9622    1.0788   -0.1804 N   0  0  0  0  0  0  0  0  0  0  0  0
   -0.1375    0.0000   -0.0004 C   0  0  0  0  0  2  0  0  0  0  0  0
   -2.2887   -0.6880    0.1093 C   0  0  0  0  0  0  0  0  0  0  0  0
   -3.4528   -1.4508    0.2220 C   0  0  0  0  0  0  0  0  0  0  0  0
   -4.6429   -0.7041    0.1075 C   0  0  0  0  0  0  0  0  0  0  0  0
   -5.6134   -1.2171    0.1847 H   0  0  0  0  0  0  0  0  0  0  0  0
   -4.6430    0.7037   -0.1067 C   0  0  0  0  0  0  0  0  0  0  0  0
   -5.6136    1.2166   -0.1834 H   0  0  0  0  0  0  0  0  0  0  0  0
   -3.4530    1.4505   -0.2219 C   0  0  0  0  0  0  0  0  0  0  0  0
   -2.2888    0.6877   -0.1099 C   0  0  0  0  0  0  0  0  0  0  0  0
   -0.6539   -2.4937    0.3757 C   0  0  0  0  0  0  0  0  0  0  0  0
    0.2619   -2.5712    0.9926 H   0  0  0  0  0  0  0  0  0  0  0  0
   -0.4119   -2.9397   -0.6110 H   0  0  0  0  0  0  0  0  0  0  0  0
   -1.8514   -3.1722    1.0644 C   0  0  0  0  0  0  0  0  0  0  0  0
   -1.9109   -2.8062    2.1117 H   0  0  0  0  0  0  0  0  0  0  0  0
   -1.6454   -4.2608    1.1178 H   0  0  0  0  0  0  0  0  0  0  0  0
   -3.2484   -2.9552    0.3947 C   0  0  0  0  0  0  0  0  0  0  0  0
   -3.2799   -3.6244   -0.9979 C   0  0  0  0  0  0  0  0  0  0  0  0
   -4.2656   -3.4722   -1.4809 H   0  0  0  0  0  0  0  0  0  0  0  0
   -3.1006   -4.7164   -0.9106 H   0  0  0  0  0  0  0  0  0  0  0  0
   -2.5115   -3.2001   -1.6744 H   0  0  0  0  0  0  0  0  0  0  0  0
   -4.3311   -3.5738    1.2922 C   0  0  0  0  0  0  0  0  0  0  0  0
   -4.3524   -3.0888    2.2888 H   0  0  0  0  0  0  0  0  0  0  0  0
   -4.1440   -4.6573    1.4378 H   0  0  0  0  0  0  0  0  0  0  0  0
   -5.3373   -3.4693    0.8392 H   0  0  0  0  0  0  0  0  0  0  0  0
   -0.6543    2.4936   -0.3767 C   0  0  0  0  0  0  0  0  0  0  0  0
    0.2612    2.5712   -0.9942 H   0  0  0  0  0  0  0  0  0  0  0  0
   -0.4116    2.9395    0.6099 H   0  0  0  0  0  0  0  0  0  0  0  0
   -1.8522    3.1722   -1.0646 C   0  0  0  0  0  0  0  0  0  0  0  0
   -1.9122    2.8064   -2.1120 H   0  0  0  0  0  0  0  0  0  0  0  0
   -1.6463    4.2608   -1.1179 H   0  0  0  0  0  0  0  0  0  0  0  0
   -3.2488    2.9550   -0.3943 C   0  0  0  0  0  0  0  0  0  0  0  0
   -4.3319    3.5738   -1.2909 C   0  0  0  0  0  0  0  0  0  0  0  0
   -4.3538    3.0892   -2.2877 H   0  0  0  0  0  0  0  0  0  0  0  0
   -4.1450    4.6573   -1.4362 H   0  0  0  0  0  0  0  0  0  0  0  0
   -5.3379    3.4691   -0.8374 H   0  0  0  0  0  0  0  0  0  0  0  0
   -3.2794    3.6236    0.9986 C   0  0  0  0  0  0  0  0  0  0  0  0
   -4.2649    3.4713    1.4821 H   0  0  0  0  0  0  0  0  0  0  0  0
   -3.1003    4.7157    0.9116 H   0  0  0  0  0  0  0  0  0  0  0  0
   -2.5107    3.1991    1.6745 H   0  0  0  0  0  0  0  0  0  0  0  0
  1 12  1  0  0  0  0
  2 11  1  0  0  0  0
  2  3  1  0  0  0  0
  3  1  1  0  0  0  0
  4  1  1  0  0  0  0
  4  5  1  0  0  0  0
  5 18  1  0  0  0  0
  6  7  1  0  0  0  0
  6  5  2  0  0  0  0
  8  6  1  0  0  0  0
  9  8  1  0  0  0  0
 10 11  1  0  0  0  0
 10  8  2  0  0  0  0
 11  4  2  0  0  0  0
 12 13  1  0  0  0  0
 12 15  1  0  0  0  0
 14 12  1  0  0  0  0
 15 17  1  0  0  0  0
 15 16  1  0  0  0  0
 18 15  1  0  0  0  0
 18 23  1  0  0  0  0
 19 21  1  0  0  0  0
 19 18  1  0  0  0  0
 20 19  1  0  0  0  0
 22 19  1  0  0  0  0
 23 25  1  0  0  0  0
 23 24  1  0  0  0  0
 26 23  1  0  0  0  0
 27  2  1  0  0  0  0
 27 29  1  0  0  0  0
 28 27  1  0  0  0  0
 30 33  1  0  0  0  0
 30 27  1  0  0  0  0
 31 30  1  0  0  0  0
 32 30  1  0  0  0  0
 33 10  1  0  0  0  0
 33 38  1  0  0  0  0
 34 37  1  0  0  0  0
 34 33  1  0  0  0  0
 35 34  1  0  0  0  0
 36 34  1  0  0  0  0
 38 39  1  0  0  0  0
 38 41  1  0  0  0  0
 40 38  1  0  0  0  0
M  END
