6
 OpenBabel05122313113D

 29 30  0  0  1  0  0  0  0  0999 V2000
   -0.1600    2.7456    1.2074 O   0  0  0  0  0  0  0  0  0  0  0  0
   -1.3496    2.6087   -0.7216 O   0  0  0  0  0  0  0  0  0  0  0  0
    2.8825   -1.3028   -0.0744 O   0  0  0  0  0  0  0  0  0  0  0  0
    2.4495    0.9264   -0.2494 O   0  0  0  0  0  0  0  0  0  0  0  0
    0.0518    0.7838   -0.1673 C   0  0  1  0  0  3  0  0  0  0  0  0
   -0.2418    0.2019   -1.4556 C   0  0  0  0  0  3  0  0  0  0  0  0
   -0.7285    0.7682   -2.2613 H   0  0  0  0  0  0  0  0  0  0  0  0
    0.0531   -1.1837   -1.5634 C   0  0  0  0  0  3  0  0  0  0  0  0
   -0.2090   -1.7509   -2.4694 H   0  0  0  0  0  0  0  0  0  0  0  0
    0.5406   -1.8128   -0.3665 C   0  0  0  0  0  3  0  0  0  0  0  0
    0.5827   -2.9141   -0.3614 H   0  0  0  0  0  0  0  0  0  0  0  0
    1.5836   -1.1266    0.4890 C   0  0  2  0  0  0  0  0  0  0  0  0
    1.5537   -1.5472    1.5188 H   0  0  0  0  0  0  0  0  0  0  0  0
    1.3551    0.4052    0.5068 C   0  0  1  0  0  0  0  0  0  0  0  0
    1.3519    0.8195    1.5380 H   0  0  0  0  0  0  0  0  0  0  0  0
   -0.4662    2.1351    0.1977 C   0  0  0  0  0  0  0  0  0  0  0  0
   -1.9628    3.8605   -0.3963 C   0  0  0  0  0  0  0  0  0  0  0  0
   -2.5384    3.7806    0.5479 H   0  0  0  0  0  0  0  0  0  0  0  0
   -2.6383    4.0981   -1.2370 H   0  0  0  0  0  0  0  0  0  0  0  0
   -1.1989    4.6539   -0.2728 H   0  0  0  0  0  0  0  0  0  0  0  0
    3.5155   -0.0149   -0.1482 C   0  0  0  0  0  0  0  0  0  0  0  0
    4.3392    0.0507   -1.4238 C   0  0  0  0  0  0  0  0  0  0  0  0
    3.6781   -0.1344   -2.2908 H   0  0  0  0  0  0  0  0  0  0  0  0
    5.1360   -0.7169   -1.4036 H   0  0  0  0  0  0  0  0  0  0  0  0
    4.8055    1.0489   -1.5282 H   0  0  0  0  0  0  0  0  0  0  0  0
    4.3433    0.2321    1.1190 C   0  0  0  0  0  0  0  0  0  0  0  0
    4.8121    1.2349    1.0841 H   0  0  0  0  0  0  0  0  0  0  0  0
    5.1364   -0.5344    1.2158 H   0  0  0  0  0  0  0  0  0  0  0  0
    3.7027    0.1810    2.0215 H   0  0  0  0  0  0  0  0  0  0  0  0
  2 17  1  0  0  0  0
  2 16  1  0  0  0  0
  3 12  1  0  0  0  0
  4 21  1  0  0  0  0
  4 14  1  0  0  0  0
  5 16  1  6  0  0  0
  5 14  1  0  0  0  0
  6  5  1  0  0  0  0
  7  6  1  0  0  0  0
  8  6  1  0  0  0  0
  8 10  1  0  0  0  0
  9  8  1  0  0  0  0
 10 11  1  0  0  0  0
 10 12  1  0  0  0  0
 12 14  1  0  0  0  0
 12 13  1  1  0  0  0
 14 15  1  1  0  0  0
 16  1  2  0  0  0  0
 17 20  1  0  0  0  0
 17 18  1  0  0  0  0
 19 17  1  0  0  0  0
 21  3  1  0  0  0  0
 21 26  1  0  0  0  0
 22 24  1  0  0  0  0
 22 21  1  0  0  0  0
 23 22  1  0  0  0  0
 25 22  1  0  0  0  0
 26 28  1  0  0  0  0
 26 29  1  0  0  0  0
 27 26  1  0  0  0  0
M  END
