6
 OpenBabel05122313113D

 20 21  0  0  0  0  0  0  0  0999 V2000
    2.5729   -3.3542   -0.0677 F   0  0  0  0  0  0  0  0  0  0  0  0
    5.2748   -3.5303    0.0468 F   0  0  0  0  0  0  0  0  0  0  0  0
    6.8004   -1.2600    0.1581 F   0  0  0  0  0  0  0  0  0  0  0  0
    5.6497    1.1705    0.1352 F   0  0  0  0  0  0  0  0  0  0  0  0
    1.6479    1.7375    0.6466 N   0  0  0  0  0  0  0  0  0  0  0  0
    2.6382   -0.9663   -0.0315 C   0  0  0  0  0  3  0  0  0  0  0  0
    3.2817   -2.2048   -0.0185 C   0  0  0  0  0  0  0  0  0  0  0  0
    4.6808   -2.3295    0.0392 C   0  0  0  0  0  0  0  0  0  0  0  0
    5.4656   -1.1678    0.0864 C   0  0  0  0  0  0  0  0  0  0  0  0
    4.8415    0.0893    0.0681 C   0  0  0  0  0  0  0  0  0  0  0  0
    3.4379    0.2145    0.0084 C   0  0  0  0  0  0  0  0  0  0  0  0
    2.8099    1.5690   -0.0261 C   0  0  0  0  0  0  0  0  0  0  0  0
    3.3773    2.6271   -0.7748 C   0  0  0  0  0  0  0  0  0  0  0  0
    4.3206    2.4727   -1.3146 H   0  0  0  0  0  0  0  0  0  0  0  0
    2.7154    3.8588   -0.8345 C   0  0  0  0  0  0  0  0  0  0  0  0
    3.1393    4.6850   -1.4260 H   0  0  0  0  0  0  0  0  0  0  0  0
    1.5057    4.0176   -0.1435 C   0  0  0  0  0  0  0  0  0  0  0  0
    0.9451    4.9638   -0.1650 H   0  0  0  0  0  0  0  0  0  0  0  0
    1.0224    2.9206    0.5849 C   0  0  0  0  0  0  0  0  0  0  0  0
    0.0713    2.9990    1.1417 H   0  0  0  0  0  0  0  0  0  0  0  0
  1  7  1  0  0  0  0
  6  7  2  0  0  0  0
  6 11  1  0  0  0  0
  7  8  1  0  0  0  0
  8  2  1  0  0  0  0
  8  9  2  0  0  0  0
  9  3  1  0  0  0  0
 10  9  1  0  0  0  0
 10  4  1  0  0  0  0
 11 10  2  0  0  0  0
 12 11  1  0  0  0  0
 12  5  2  0  0  0  0
 13 12  1  0  0  0  0
 14 13  1  0  0  0  0
 15 13  2  0  0  0  0
 15 17  1  0  0  0  0
 16 15  1  0  0  0  0
 17 19  2  0  0  0  0
 18 17  1  0  0  0  0
 19  5  1  0  0  0  0
 19 20  1  0  0  0  0
M  END
