1
 OpenBabel05122313113D

 18 18  0  0  0  0  0  0  0  0999 V2000
    2.2434    1.3161    2.1647 C   0  0  0  0  0  3  0  0  0  0  0  0
    2.0840    1.9355    3.0440 H   0  0  0  0  0  0  0  0  0  0  0  0
    2.8674    0.7651    1.2324 C   0  0  0  0  0  0  0  0  0  0  0  0
    3.5843    0.0914    0.2031 C   0  0  0  0  0  0  0  0  0  0  0  0
    3.7230    0.6870   -1.0206 C   0  0  0  0  0  3  0  0  0  0  0  0
    3.2384    1.6638   -1.1873 H   0  0  0  0  0  0  0  0  0  0  0  0
    4.4819    0.0730   -2.1515 C   0  0  0  0  0  0  0  0  0  0  0  0
    5.1155    0.8513   -2.6305 H   0  0  0  0  0  0  0  0  0  0  0  0
    3.7424   -0.2002   -2.9431 H   0  0  0  0  0  0  0  0  0  0  0  0
    5.3123   -1.1483   -1.7366 C   0  0  0  0  0  0  0  0  0  0  0  0
    5.6240   -1.7174   -2.6345 H   0  0  0  0  0  0  0  0  0  0  0  0
    6.2473   -0.8050   -1.2437 H   0  0  0  0  0  0  0  0  0  0  0  0
    4.5297   -2.0406   -0.7674 C   0  0  0  0  0  0  0  0  0  0  0  0
    5.1115   -2.9479   -0.5105 H   0  0  0  0  0  0  0  0  0  0  0  0
    3.5961   -2.3922   -1.2601 H   0  0  0  0  0  0  0  0  0  0  0  0
    4.1674   -1.2792    0.5125 C   0  0  0  0  0  0  0  0  0  0  0  0
    3.4435   -1.8530    1.1291 H   0  0  0  0  0  0  0  0  0  0  0  0
    5.0641   -1.1461    1.1577 H   0  0  0  0  0  0  0  0  0  0  0  0
  1  2  1  0  0  0  0
  3  1  2  0  0  0  0
  4 16  1  0  0  0  0
  4  3  2  0  0  0  0
  5  4  1  0  0  0  0
  6  5  1  0  0  0  0
  7 10  1  0  0  0  0
  7  5  1  0  0  0  0
  8  7  1  0  0  0  0
  9  7  1  0  0  0  0
 10 12  1  0  0  0  0
 10 13  1  0  0  0  0
 11 10  1  0  0  0  0
 13 14  1  0  0  0  0
 13 16  1  0  0  0  0
 15 13  1  0  0  0  0
 16 17  1  0  0  0  0
 16 18  1  0  0  0  0
M  END
