6
 OpenBabel05122313113D

 30 31  0  0  0  0  0  0  0  0999 V2000
   -2.2997    1.1312   -0.0678 C   0  0  0  0  0  0  0  0  0  0  0  0
   -2.1879    0.0890   -1.0487 C   0  0  0  0  0  0  0  0  0  0  0  0
   -2.7318   -0.8611   -1.0255 H   0  0  0  0  0  0  0  0  0  0  0  0
   -1.2533    0.4909   -2.0320 C   0  0  0  0  0  0  0  0  0  0  0  0
   -0.9391   -0.0995   -2.8976 H   0  0  0  0  0  0  0  0  0  0  0  0
   -0.7225    1.7559   -1.6479 C   0  0  0  0  0  3  0  0  0  0  0  0
    0.0273    2.3342   -2.2006 H   0  0  0  0  0  0  0  0  0  0  0  0
   -1.3964    2.1580   -0.4504 C   0  0  0  0  0  0  0  0  0  0  0  0
   -1.2579    3.1052    0.0837 H   0  0  0  0  0  0  0  0  0  0  0  0
   -3.2187    1.1522    1.1308 C   0  0  0  0  0  0  0  0  0  0  0  0
   -3.3495    2.2043    1.4563 H   0  0  0  0  0  0  0  0  0  0  0  0
   -2.7260    0.6062    1.9617 H   0  0  0  0  0  0  0  0  0  0  0  0
   -4.5659    0.5181    0.8522 C   0  0  0  0  0  0  0  0  0  0  0  0
   -5.6476    1.2836    0.3809 C   0  0  0  0  0  0  0  0  0  0  0  0
   -5.5215    2.3694    0.2403 H   0  0  0  0  0  0  0  0  0  0  0  0
   -6.8841    0.6882    0.0895 C   0  0  0  0  0  0  0  0  0  0  0  0
   -7.7286    1.2891   -0.2750 H   0  0  0  0  0  0  0  0  0  0  0  0
   -7.0639   -0.6949    0.2592 C   0  0  0  0  0  0  0  0  0  0  0  0
   -5.9827   -1.4668    0.7272 C   0  0  0  0  0  0  0  0  0  0  0  0
   -6.1060   -2.5535    0.8663 H   0  0  0  0  0  0  0  0  0  0  0  0
   -4.7505   -0.8701    1.0209 C   0  0  0  0  0  0  0  0  0  0  0  0
   -3.9085   -1.4826    1.3804 H   0  0  0  0  0  0  0  0  0  0  0  0
   -8.3886   -1.3564   -0.0409 C   0  0  0  0  0  0  0  0  0  0  0  0
   -8.7906   -1.8278    0.8948 H   0  0  0  0  0  0  0  0  0  0  0  0
   -8.2294   -2.2022   -0.7602 H   0  0  0  0  0  0  0  0  0  0  0  0
   -9.3068   -0.4265   -0.5605 O   0  0  0  0  0  0  0  0  0  0  0  0
  -10.5608   -0.9933   -0.8423 C   0  0  0  0  0  0  0  0  0  0  0  0
  -11.0443   -1.4226    0.0702 H   0  0  0  0  0  0  0  0  0  0  0  0
  -10.4932   -1.8100   -1.6032 H   0  0  0  0  0  0  0  0  0  0  0  0
  -11.2118   -0.1920   -1.2424 H   0  0  0  0  0  0  0  0  0  0  0  0
  1 10  1  0  0  0  0
  2  3  1  0  0  0  0
  2  1  1  0  0  0  0
  4  6  1  0  0  0  0
  4  2  2  0  0  0  0
  5  4  1  0  0  0  0
  6  8  1  0  0  0  0
  7  6  1  0  0  0  0
  8  1  2  0  0  0  0
  8  9  1  0  0  0  0
 10 11  1  0  0  0  0
 10 12  1  0  0  0  0
 13 21  1  0  0  0  0
 13 10  1  0  0  0  0
 14 13  2  0  0  0  0
 15 14  1  0  0  0  0
 16 18  2  0  0  0  0
 16 14  1  0  0  0  0
 17 16  1  0  0  0  0
 18 19  1  0  0  0  0
 19 20  1  0  0  0  0
 19 21  2  0  0  0  0
 21 22  1  0  0  0  0
 23 18  1  0  0  0  0
 23 24  1  0  0  0  0
 25 23  1  0  0  0  0
 26 23  1  0  0  0  0
 27 26  1  0  0  0  0
 27 28  1  0  0  0  0
 29 27  1  0  0  0  0
 30 27  1  0  0  0  0
M  END
