19
 OpenBabel05122313113D

 30 32  0  0  1  0  0  0  0  0999 V2000
    0.3679    1.5618    1.0924 C   0  0  0  0  0  0  0  0  0  0  0  0
    0.4108    1.1646    2.1114 H   0  0  0  0  0  0  0  0  0  0  0  0
    1.4934    1.8165    0.2564 C   0  0  0  0  0  0  0  0  0  0  0  0
    2.9569    1.6948    0.5871 C   0  0  0  0  0  0  0  0  0  0  0  0
    3.1895    0.7096    1.0373 H   0  0  0  0  0  0  0  0  0  0  0  0
    3.1757    2.4404    1.3856 H   0  0  0  0  0  0  0  0  0  0  0  0
    3.8483    1.9683   -0.6357 C   0  0  0  0  0  0  0  0  0  0  0  0
    4.8910    2.1430   -0.2992 H   0  0  0  0  0  0  0  0  0  0  0  0
    3.8623    1.0671   -1.2833 H   0  0  0  0  0  0  0  0  0  0  0  0
    3.3458    3.1637   -1.4592 C   0  0  0  0  0  0  0  0  0  0  0  0
    4.0522    3.3821   -2.2860 H   0  0  0  0  0  0  0  0  0  0  0  0
    3.3208    4.0722   -0.8162 H   0  0  0  0  0  0  0  0  0  0  0  0
    1.9419    2.9036   -2.0359 C   0  0  0  0  0  0  0  0  0  0  0  0
    2.0132    2.1350   -2.8359 H   0  0  0  0  0  0  0  0  0  0  0  0
    1.5256    3.8183   -2.5057 H   0  0  0  0  0  0  0  0  0  0  0  0
    1.0160    2.4202   -0.9545 C   0  0  0  0  0  0  0  0  0  0  0  0
   -0.3982    2.5237   -0.8648 C   0  0  0  0  0  0  0  0  0  0  0  0
   -1.0594    2.9329   -1.6359 H   0  0  0  0  0  0  0  0  0  0  0  0
   -0.8168    2.0086    0.4084 C   0  0  1  0  0  3  0  0  0  0  0  0
   -2.1804    1.9310    0.8929 C   0  0  0  0  0  0  0  0  0  0  0  0
   -3.4105    2.2157    0.3246 C   0  0  0  0  0  0  0  0  0  0  0  0
   -3.5770    2.5668   -0.6986 H   0  0  0  0  0  0  0  0  0  0  0  0
   -4.3964    1.9256    1.3218 C   0  0  0  0  0  0  0  0  0  0  0  0
   -5.4830    2.0290    1.2292 H   0  0  0  0  0  0  0  0  0  0  0  0
   -3.7191    1.4750    2.4368 C   0  0  0  0  0  0  0  0  0  0  0  0
   -4.1450    1.0011    3.7787 C   0  0  0  0  0  0  0  0  0  0  0  0
   -5.2443    1.0718    3.8722 H   0  0  0  0  0  0  0  0  0  0  0  0
   -3.6872    1.6047    4.5904 H   0  0  0  0  0  0  0  0  0  0  0  0
   -3.8515   -0.0569    3.9502 H   0  0  0  0  0  0  0  0  0  0  0  0
   -2.3702    1.4793    2.1805 O   0  0  0  0  0  0  0  0  0  0  0  0
  1  2  1  0  0  0  0
  3  4  1  0  0  0  0
  3  1  2  0  0  0  0
  4  5  1  0  0  0  0
  4  6  1  0  0  0  0
  7  8  1  0  0  0  0
  7  4  1  0  0  0  0
  9  7  1  0  0  0  0
 10 12  1  0  0  0  0
 10  7  1  0  0  0  0
 11 10  1  0  0  0  0
 13 10  1  0  0  0  0
 13 16  1  0  0  0  0
 14 13  1  0  0  0  0
 15 13  1  0  0  0  0
 16 17  2  0  0  0  0
 16  3  1  0  0  0  0
 17 19  1  0  0  0  0
 18 17  1  0  0  0  0
 19 20  1  6  0  0  0
 19  1  1  0  0  0  0
 20 30  1  0  0  0  0
 21 20  2  0  0  0  0
 21 23  1  0  0  0  0
 22 21  1  0  0  0  0
 23 25  2  0  0  0  0
 24 23  1  0  0  0  0
 25 26  1  0  0  0  0
 26 27  1  0  0  0  0
 26 29  1  0  0  0  0
 26 28  1  0  0  0  0
 30 25  1  0  0  0  0
M  END
