1
 OpenBabel05122313113D

 16 16  0  0  0  0  0  0  0  0999 V2000
   -1.7832   -0.3099    0.1191 C   0  0  0  0  0  1  0  0  0  0  0  0
   -7.1317   -0.1729   -0.0772 C   0  0  0  0  0  0  0  0  0  0  0  0
   -8.2300   -0.1326   -0.1210 H   0  0  0  0  0  0  0  0  0  0  0  0
   -6.4006    1.0231   -0.0645 C   0  0  0  0  0  0  0  0  0  0  0  0
   -6.9001    2.0008   -0.0974 H   0  0  0  0  0  0  0  0  0  0  0  0
   -4.3396   -0.2864    0.0353 C   0  0  0  0  0  0  0  0  0  0  0  0
   -5.0788   -1.5019    0.0206 C   0  0  0  0  0  0  0  0  0  0  0  0
   -2.9718   -0.3283    0.0879 N   0  0  0  0  0  2  0  0  0  0  0  0
   -6.4791   -1.4148   -0.0358 C   0  0  0  0  0  0  0  0  0  0  0  0
   -7.0681   -2.3438   -0.0477 H   0  0  0  0  0  0  0  0  0  0  0  0
   -4.3534   -2.8179    0.0633 C   0  0  0  0  0  0  0  0  0  0  0  0
   -3.6633   -2.9243   -0.8000 H   0  0  0  0  0  0  0  0  0  0  0  0
   -5.0630   -3.6651    0.0440 H   0  0  0  0  0  0  0  0  0  0  0  0
   -3.7325   -2.9060    0.9791 H   0  0  0  0  0  0  0  0  0  0  0  0
   -4.0687    2.4322    0.0118 Cl  0  0  0  0  0  0  0  0  0  0  0  0
   -5.0030    0.9682   -0.0084 C   0  0  0  0  0  0  0  0  0  0  0  0
  2  4  2  0  0  0  0
  2  9  1  0  0  0  0
  3  2  1  0  0  0  0
  4 16  1  0  0  0  0
  5  4  1  0  0  0  0
  6  8  1  0  0  0  0
  7  6  1  0  0  0  0
  7 11  1  0  0  0  0
  8  1  1  0  0  0  0
  9  7  2  0  0  0  0
 10  9  1  0  0  0  0
 11 14  1  0  0  0  0
 12 11  1  0  0  0  0
 13 11  1  0  0  0  0
 16 15  1  0  0  0  0
 16  6  2  0  0  0  0
M  END
