9
 OpenBabel05122313113D

 27 28  0  0  0  0  0  0  0  0999 V2000
    6.8735   -0.0130   -0.3267 O   0  0  0  0  0  0  0  0  0  0  0  0
    3.9216   -0.7506    3.1465 O   0  0  0  0  0  0  0  0  0  0  0  0
    5.3902   -0.3781    1.3842 N   0  0  0  0  0  0  0  0  0  0  0  0
    4.6259    0.1252   -0.8376 N   0  0  0  0  0  0  0  0  0  0  0  0
    2.1291    0.1865   -1.0069 N   0  0  0  0  0  0  0  0  0  0  0  0
    1.6713   -0.2678    1.0955 N   0  0  0  0  0  0  0  0  0  0  0  0
    5.7115   -0.0853    0.0535 C   0  0  0  0  0  0  0  0  0  0  0  0
    3.3407    0.0315   -0.3574 C   0  0  0  0  0  0  0  0  0  0  0  0
    1.0912    0.0028   -0.0981 C   0  0  0  0  0  2  0  0  0  0  0  0
    3.0594   -0.2576    0.9705 C   0  0  0  0  0  0  0  0  0  0  0  0
    4.0875   -0.4887    1.9556 C   0  0  0  0  0  0  0  0  0  0  0  0
    6.5366   -0.5881    2.2677 C   0  0  0  0  0  0  0  0  0  0  0  0
    7.1714    0.3184    2.2912 H   0  0  0  0  0  0  0  0  0  0  0  0
    7.1544   -1.4285    1.8974 H   0  0  0  0  0  0  0  0  0  0  0  0
    6.1368   -0.8102    3.2717 H   0  0  0  0  0  0  0  0  0  0  0  0
    4.9628    0.4339   -2.2247 C   0  0  0  0  0  0  0  0  0  0  0  0
    6.0656    0.4688   -2.2715 H   0  0  0  0  0  0  0  0  0  0  0  0
    4.5525    1.4159   -2.5262 H   0  0  0  0  0  0  0  0  0  0  0  0
    4.5964   -0.3528   -2.9117 H   0  0  0  0  0  0  0  0  0  0  0  0
    1.8635    0.5013   -2.4065 C   0  0  0  0  0  0  0  0  0  0  0  0
    2.2247    1.5148   -2.6616 H   0  0  0  0  0  0  0  0  0  0  0  0
    0.7622    0.4771   -2.5187 H   0  0  0  0  0  0  0  0  0  0  0  0
    2.3127   -0.2545   -3.0755 H   0  0  0  0  0  0  0  0  0  0  0  0
    0.9251   -0.5277    2.3239 C   0  0  0  0  0  0  0  0  0  0  0  0
    0.3069    0.3575    2.5680 H   0  0  0  0  0  0  0  0  0  0  0  0
    1.6526   -0.7291    3.1292 H   0  0  0  0  0  0  0  0  0  0  0  0
    0.2607   -1.3990    2.1652 H   0  0  0  0  0  0  0  0  0  0  0  0
  1  7  2  0  0  0  0
  3 11  1  0  0  0  0
  3 12  1  0  0  0  0
  4  8  1  0  0  0  0
  4  7  1  0  0  0  0
  5  8  1  0  0  0  0
  5  9  1  0  0  0  0
  6 24  1  0  0  0  0
  7  3  1  0  0  0  0
  8 10  2  0  0  0  0
  9  6  1  0  0  0  0
 10  6  1  0  0  0  0
 10 11  1  0  0  0  0
 11  2  2  0  0  0  0
 12 13  1  0  0  0  0
 12 15  1  0  0  0  0
 14 12  1  0  0  0  0
 16  4  1  0  0  0  0
 17 16  1  0  0  0  0
 18 16  1  0  0  0  0
 19 16  1  0  0  0  0
 20  5  1  0  0  0  0
 21 20  1  0  0  0  0
 22 20  1  0  0  0  0
 23 20  1  0  0  0  0
 24 25  1  0  0  0  0
 24 26  1  0  0  0  0
 27 24  1  0  0  0  0
M  END
