27
 OpenBabel05122313113D

 41 43  0  0  0  0  0  0  0  0999 V2000
   -1.7033    0.0888    0.6597 P   0  0  0  0  0  4  0  0  0  0  0  0
   -2.3134   -1.2214   -0.4411 C   0  0  0  0  0  0  0  0  0  0  0  0
   -3.1494   -2.2542    0.0193 C   0  0  0  0  0  0  0  0  0  0  0  0
   -3.4102   -2.3308    1.0844 H   0  0  0  0  0  0  0  0  0  0  0  0
   -3.7325    3.6094    1.3314 C   0  0  0  0  0  0  0  0  0  0  0  0
   -3.6616    4.4404    2.0492 H   0  0  0  0  0  0  0  0  0  0  0  0
   -2.4734   -2.0885   -2.7080 C   0  0  0  0  0  0  0  0  0  0  0  0
   -2.2087   -2.0243   -3.7744 H   0  0  0  0  0  0  0  0  0  0  0  0
   -3.3036   -3.1261   -2.2472 C   0  0  0  0  0  0  0  0  0  0  0  0
   -3.6881   -3.8770   -2.9539 H   0  0  0  0  0  0  0  0  0  0  0  0
   -3.6391   -3.2074   -0.8878 C   0  0  0  0  0  0  0  0  0  0  0  0
   -4.2827   -4.0228   -0.5253 H   0  0  0  0  0  0  0  0  0  0  0  0
   -1.9744   -1.1390   -1.8074 C   0  0  0  0  0  0  0  0  0  0  0  0
   -1.3083   -0.3322   -2.1508 H   0  0  0  0  0  0  0  0  0  0  0  0
   -3.9001    1.4882   -0.5059 C   0  0  0  0  0  0  0  0  0  0  0  0
   -3.9693    0.6587   -1.2251 H   0  0  0  0  0  0  0  0  0  0  0  0
   -2.8597    2.5185    1.4425 C   0  0  0  0  0  0  0  0  0  0  0  0
   -2.1028    2.5068    2.2420 H   0  0  0  0  0  0  0  0  0  0  0  0
    1.2888    2.6545   -0.4985 C   0  0  0  0  0  0  0  0  0  0  0  0
   -4.7721    2.5831   -0.6118 C   0  0  0  0  0  0  0  0  0  0  0  0
   -5.5227    2.6051   -1.4163 H   0  0  0  0  0  0  0  0  0  0  0  0
   -2.9412    1.4461    0.5258 C   0  0  0  0  0  0  0  0  0  0  0  0
    2.4775    2.5064    0.2570 C   0  0  0  0  0  0  0  0  0  0  0  0
    2.4931    1.7807    1.0815 H   0  0  0  0  0  0  0  0  0  0  0  0
   -4.6905    3.6430    0.3045 C   0  0  0  0  0  0  0  0  0  0  0  0
   -5.3751    4.5004    0.2183 H   0  0  0  0  0  0  0  0  0  0  0  0
   -0.0303    0.5817    0.2286 C   0  0  0  0  0  3  0  0  0  0  0  0
   -1.8211   -0.4419    2.4052 C   0  0  0  0  0  0  0  0  0  0  0  0
   -1.5729   -1.5138    2.5009 H   0  0  0  0  0  0  0  0  0  0  0  0
   -2.8445   -0.2458    2.7763 H   0  0  0  0  0  0  0  0  0  0  0  0
   -1.0841    0.1449    2.9858 H   0  0  0  0  0  0  0  0  0  0  0  0
    2.4046    4.4057   -1.8082 C   0  0  0  0  0  0  0  0  0  0  0  0
    2.3689    5.1518   -2.6170 H   0  0  0  0  0  0  0  0  0  0  0  0
    3.6058    3.2876   -0.0206 C   0  0  0  0  0  0  0  0  0  0  0  0
    4.5142    3.1650    0.5897 H   0  0  0  0  0  0  0  0  0  0  0  0
    0.0690    1.8854   -0.2116 C   0  0  0  0  0  0  0  0  0  0  0  0
   -0.8560    2.4650   -0.3963 H   0  0  0  0  0  0  0  0  0  0  0  0
    1.2695    3.6358   -1.5203 C   0  0  0  0  0  0  0  0  0  0  0  0
    0.3442    3.7834   -2.1004 H   0  0  0  0  0  0  0  0  0  0  0  0
    3.5817    4.2317   -1.0626 C   0  0  0  0  0  0  0  0  0  0  0  0
    4.4729    4.8389   -1.2824 H   0  0  0  0  0  0  0  0  0  0  0  0
  1 28  1  0  0  0  0
  2  3  1  0  0  0  0
  2  1  1  0  0  0  0
  3  4  1  0  0  0  0
  5 17  1  0  0  0  0
  5  6  1  0  0  0  0
  7  9  2  0  0  0  0
  7 13  1  0  0  0  0
  8  7  1  0  0  0  0
  9 11  1  0  0  0  0
 10  9  1  0  0  0  0
 11 12  1  0  0  0  0
 11  3  2  0  0  0  0
 13  2  2  0  0  0  0
 14 13  1  0  0  0  0
 15 22  1  0  0  0  0
 16 15  1  0  0  0  0
 17 18  1  0  0  0  0
 19 36  1  0  0  0  0
 19 23  1  0  0  0  0
 20 15  2  0  0  0  0
 20 25  1  0  0  0  0
 21 20  1  0  0  0  0
 22  1  1  0  0  0  0
 22 17  2  0  0  0  0
 23 24  1  0  0  0  0
 25  5  2  0  0  0  0
 26 25  1  0  0  0  0
 27  1  1  0  0  0  0
 28 29  1  0  0  0  0
 28 30  1  0  0  0  0
 28 31  1  0  0  0  0
 32 38  1  0  0  0  0
 32 40  2  0  0  0  0
 33 32  1  0  0  0  0
 34 23  2  0  0  0  0
 34 35  1  0  0  0  0
 36 27  2  0  0  0  0
 37 36  1  0  0  0  0
 38 19  2  0  0  0  0
 39 38  1  0  0  0  0
 40 34  1  0  0  0  0
 41 40  1  0  0  0  0
M  END
