17
 OpenBabel05122313113D

 26 27  0  0  0  0  0  0  0  0999 V2000
   -1.8167    1.6444    0.0691 C   0  0  0  0  0  0  0  0  0  0  0  0
   -0.7363    1.7457    0.2634 H   0  0  0  0  0  0  0  0  0  0  0  0
   -2.7283    2.4129    0.7969 C   0  0  0  0  0  0  0  0  0  0  0  0
   -2.3765    3.1200    1.5613 H   0  0  0  0  0  0  0  0  0  0  0  0
   -4.1158    2.2875    0.5460 C   0  0  0  0  0  0  0  0  0  0  0  0
   -5.0585    3.0719    1.2903 C   0  0  0  0  0  0  0  0  0  0  0  0
   -5.8317    3.7117    1.8995 N   0  0  0  0  0  0  0  0  0  0  0  0
   -4.5684    1.3854   -0.4431 C   0  0  0  0  0  0  0  0  0  0  0  0
   -5.6458    1.2894   -0.6380 H   0  0  0  0  0  0  0  0  0  0  0  0
   -3.6440    0.6195   -1.1619 C   0  0  0  0  0  0  0  0  0  0  0  0
   -4.0017   -0.0874   -1.9259 H   0  0  0  0  0  0  0  0  0  0  0  0
   -2.2642    0.7400   -0.9155 C   0  0  0  0  0  0  0  0  0  0  0  0
   -1.2612   -0.0915   -1.6906 C   0  0  0  0  0  0  0  0  0  0  0  0
   -1.7590   -0.6495   -2.5067 H   0  0  0  0  0  0  0  0  0  0  0  0
   -0.4744    0.5523   -2.1321 H   0  0  0  0  0  0  0  0  0  0  0  0
   -0.5470   -1.0494   -0.8445 N   0  0  0  0  0  0  0  0  0  0  0  0
    0.7013   -0.8285   -0.3287 C   0  0  0  0  0  2  0  0  0  0  0  0
   -1.0712   -2.2499   -0.3774 C   0  0  0  0  0  0  0  0  0  0  0  0
   -2.5999   -2.8638   -0.8194 Cl  0  0  0  0  0  0  0  0  0  0  0  0
   -0.1114   -2.7996    0.4478 C   0  0  0  0  0  0  0  0  0  0  0  0
   -0.1339   -4.2718    1.3051 Cl  0  0  0  0  0  0  0  0  0  0  0  0
    0.9597   -1.9138    0.4636 N   0  0  0  0  0  0  0  0  0  0  0  0
    2.1959   -2.1136    1.2161 C   0  0  0  0  0  0  0  0  0  0  0  0
    1.9631   -2.2401    2.2908 H   0  0  0  0  0  0  0  0  0  0  0  0
    2.8440   -1.2226    1.0755 H   0  0  0  0  0  0  0  0  0  0  0  0
    2.7182   -3.0191    0.8510 H   0  0  0  0  0  0  0  0  0  0  0  0
  1  2  1  0  0  0  0
  1  3  1  0  0  0  0
  3  4  1  0  0  0  0
  5  3  2  0  0  0  0
  5  6  1  0  0  0  0
  6  7  3  0  0  0  0
  8  5  1  0  0  0  0
  9  8  1  0  0  0  0
 10 12  1  0  0  0  0
 10  8  2  0  0  0  0
 11 10  1  0  0  0  0
 12  1  2  0  0  0  0
 13 12  1  0  0  0  0
 13 16  1  0  0  0  0
 14 13  1  0  0  0  0
 15 13  1  0  0  0  0
 16 18  1  0  0  0  0
 16 17  1  0  0  0  0
 17 22  1  0  0  0  0
 18 20  2  0  0  0  0
 19 18  1  0  0  0  0
 20 22  1  0  0  0  0
 20 21  1  0  0  0  0
 22 23  1  0  0  0  0
 23 24  1  0  0  0  0
 25 23  1  0  0  0  0
 26 23  1  0  0  0  0
M  END
