2
 OpenBabel05122313113D

 15 15  0  0  0  0  0  0  0  0999 V2000
   -4.4666    0.2742    0.0001 N   0  0  0  0  0  0  0  0  0  0  0  0
   -1.0132    0.1704    0.0000 C   0  0  0  0  0  2  0  0  0  0  0  0
   -2.1778   -2.0995   -0.0004 O   0  0  0  0  0  0  0  0  0  0  0  0
   -2.1098   -0.8904   -0.0001 C   0  0  0  0  0  0  0  0  0  0  0  0
   -3.1383    0.2431    0.0000 C   0  0  0  0  0  0  0  0  0  0  0  0
   -2.0568    1.1628    0.0001 C   0  0  0  0  0  0  0  0  0  0  0  0
   -2.0083    2.2611    0.0004 H   0  0  0  0  0  0  0  0  0  0  0  0
   -5.2280   -0.9734    0.0005 C   0  0  0  0  0  0  0  0  0  0  0  0
   -5.8770   -1.0244   -0.8989 H   0  0  0  0  0  0  0  0  0  0  0  0
   -5.8748   -1.0252    0.9013 H   0  0  0  0  0  0  0  0  0  0  0  0
   -4.5272   -1.8288   -0.0006 H   0  0  0  0  0  0  0  0  0  0  0  0
   -5.2206    1.5197   -0.0001 C   0  0  0  0  0  0  0  0  0  0  0  0
   -5.8690    1.5773    0.8996 H   0  0  0  0  0  0  0  0  0  0  0  0
   -5.8688    1.5772   -0.8999 H   0  0  0  0  0  0  0  0  0  0  0  0
   -4.5307    2.3820   -0.0001 H   0  0  0  0  0  0  0  0  0  0  0  0
  1  8  1  0  0  0  0
  2  6  1  0  0  0  0
  3  4  2  0  0  0  0
  4  2  1  0  0  0  0
  4  5  1  0  0  0  0
  5  1  1  0  0  0  0
  5  6  2  0  0  0  0
  6  7  1  0  0  0  0
  8 10  1  0  0  0  0
  9  8  1  0  0  0  0
 11  8  1  0  0  0  0
 12  1  1  0  0  0  0
 12 13  1  0  0  0  0
 14 12  1  0  0  0  0
 15 12  1  0  0  0  0
M  END
