2
 OpenBabel05122313113D

  8  8  0  0  0  0  0  0  0  0999 V2000
    4.2088    1.0585    0.0465 O   0  0  0  0  0  0  0  0  0  0  0  0
    3.4978   -0.1312    0.0067 C   0  0  0  0  0  3  0  0  0  0  0  0
    4.4142   -1.1735   -0.0271 C   0  0  0  0  0  0  0  0  0  0  0  0
    4.1618   -2.2396   -0.0631 H   0  0  0  0  0  0  0  0  0  0  0  0
    5.7284   -0.5978   -0.0073 C   0  0  0  0  0  0  0  0  0  0  0  0
    6.6907   -1.1224   -0.0240 H   0  0  0  0  0  0  0  0  0  0  0  0
    5.5383    0.7635    0.0377 C   0  0  0  0  0  0  0  0  0  0  0  0
    6.2217    1.6192    0.0667 H   0  0  0  0  0  0  0  0  0  0  0  0
  2  1  1  0  0  0  0
  3  5  1  0  0  0  0
  3  2  2  0  0  0  0
  4  3  1  0  0  0  0
  5  7  2  0  0  0  0
  6  5  1  0  0  0  0
  7  1  1  0  0  0  0
  7  8  1  0  0  0  0
M  END
