4
 OpenBabel05122313113D

 32 32  0  0  1  0  0  0  0  0999 V2000
   -1.1138    1.1540   -1.8387 C   0  0  0  0  0  3  0  0  0  0  0  0
   -0.8069    2.1100   -2.2881 H   0  0  0  0  0  0  0  0  0  0  0  0
   -1.2091    0.3343   -2.5720 H   0  0  0  0  0  0  0  0  0  0  0  0
   -1.9396    1.1654   -0.6687 C   0  0  0  0  0  3  0  0  0  0  0  0
   -2.2183    2.1546   -0.2678 H   0  0  0  0  0  0  0  0  0  0  0  0
   -2.9792    0.0832   -0.3702 C   0  0  0  0  0  0  0  0  0  0  0  0
   -3.9023    0.2666   -0.9684 H   0  0  0  0  0  0  0  0  0  0  0  0
   -3.2885    0.1903    0.6895 H   0  0  0  0  0  0  0  0  0  0  0  0
   -2.4653   -1.3528   -0.6090 C   0  0  0  0  0  0  0  0  0  0  0  0
   -3.1456   -2.0899   -0.1319 H   0  0  0  0  0  0  0  0  0  0  0  0
   -2.4770   -1.5897   -1.6913 H   0  0  0  0  0  0  0  0  0  0  0  0
   -1.0502   -1.5044   -0.0942 C   0  0  0  0  0  0  0  0  0  0  0  0
   -0.6195   -1.2534    1.2641 C   0  0  2  0  0  3  0  0  0  0  0  0
    0.8342   -1.2574    1.2727 C   0  0  0  0  0  0  0  0  0  0  0  0
    1.2841   -1.5494   -0.0675 C   0  0  0  0  0  0  0  0  0  0  0  0
    0.1262   -1.7292   -0.9138 C   0  0  0  0  0  0  0  0  0  0  0  0
   -1.4797   -1.1559    2.4909 C   0  0  0  0  0  0  0  0  0  0  0  0
   -1.4676   -2.1183    3.0468 H   0  0  0  0  0  0  0  0  0  0  0  0
   -2.5326   -0.9310    2.2421 H   0  0  0  0  0  0  0  0  0  0  0  0
   -1.1232   -0.3690    3.1837 H   0  0  0  0  0  0  0  0  0  0  0  0
    1.6956   -1.1478    2.4953 C   0  0  0  0  0  0  0  0  0  0  0  0
    1.8120   -2.1377    2.9887 H   0  0  0  0  0  0  0  0  0  0  0  0
    1.2589   -0.4533    3.2382 H   0  0  0  0  0  0  0  0  0  0  0  0
    2.7073   -0.7754    2.2468 H   0  0  0  0  0  0  0  0  0  0  0  0
    2.7108   -1.7431   -0.4874 C   0  0  0  0  0  0  0  0  0  0  0  0
    3.4003   -1.1383    0.1312 H   0  0  0  0  0  0  0  0  0  0  0  0
    2.8696   -1.4552   -1.5441 H   0  0  0  0  0  0  0  0  0  0  0  0
    3.0082   -2.8085   -0.3806 H   0  0  0  0  0  0  0  0  0  0  0  0
    0.1549   -2.1512   -2.3515 C   0  0  0  0  0  0  0  0  0  0  0  0
    0.1520   -3.2593   -2.4376 H   0  0  0  0  0  0  0  0  0  0  0  0
    1.0612   -1.7784   -2.8659 H   0  0  0  0  0  0  0  0  0  0  0  0
   -0.7234   -1.7795   -2.9142 H   0  0  0  0  0  0  0  0  0  0  0  0
  1  4  1  0  0  0  0
  2  1  1  0  0  0  0
  3  1  1  0  0  0  0
  4  6  1  0  0  0  0
  4  5  1  0  0  0  0
  6  8  1  0  0  0  0
  7  6  1  0  0  0  0
  9  6  1  0  0  0  0
  9 10  1  0  0  0  0
  9 12  1  0  0  0  0
 11  9  1  0  0  0  0
 12 13  1  0  0  0  0
 13 14  1  0  0  0  0
 13 17  1  1  0  0  0
 14 21  1  0  0  0  0
 15 14  2  0  0  0  0
 16 12  2  0  0  0  0
 16 15  1  0  0  0  0
 17 18  1  0  0  0  0
 17 20  1  0  0  0  0
 19 17  1  0  0  0  0
 21 22  1  0  0  0  0
 21 23  1  0  0  0  0
 24 21  1  0  0  0  0
 25 28  1  0  0  0  0
 25 15  1  0  0  0  0
 25 26  1  0  0  0  0
 27 25  1  0  0  0  0
 29 16  1  0  0  0  0
 30 29  1  0  0  0  0
 31 29  1  0  0  0  0
 32 29  1  0  0  0  0
M  END
