4
 OpenBabel05122313113D

 35 37  0  0  0  0  0  0  0  0999 V2000
   -4.9110   -0.0219   -1.6183 S   0  0  0  0  0  0  0  0  0  0  0  0
    1.6099    0.2220   -1.9095 N   0  0  0  0  0  0  0  0  0  0  0  0
   -0.5166   -0.3112   -1.9840 N   0  0  0  0  0  0  0  0  0  0  0  0
    0.3850    0.5394   -1.3892 C   0  0  0  0  0  2  0  0  0  0  0  0
    1.5031   -0.8363   -2.8095 C   0  0  0  0  0  0  0  0  0  0  0  0
    2.4593   -1.5285   -3.5631 C   0  0  0  0  0  0  0  0  0  0  0  0
    3.5259   -1.2715   -3.5085 H   0  0  0  0  0  0  0  0  0  0  0  0
    1.9954   -2.5747   -4.3762 C   0  0  0  0  0  0  0  0  0  0  0  0
    2.7161   -3.1450   -4.9806 H   0  0  0  0  0  0  0  0  0  0  0  0
    0.6254   -2.9137   -4.4334 C   0  0  0  0  0  0  0  0  0  0  0  0
    0.3017   -3.7410   -5.0820 H   0  0  0  0  0  0  0  0  0  0  0  0
   -0.3342   -2.2206   -3.6773 C   0  0  0  0  0  0  0  0  0  0  0  0
   -1.3989   -2.4906   -3.7095 H   0  0  0  0  0  0  0  0  0  0  0  0
    0.1311   -1.1785   -2.8652 C   0  0  0  0  0  0  0  0  0  0  0  0
    2.8440    0.9366   -1.6310 C   0  0  0  0  0  0  0  0  0  0  0  0
    2.5857    1.8712   -1.0998 H   0  0  0  0  0  0  0  0  0  0  0  0
    3.3330    1.2054   -2.5873 H   0  0  0  0  0  0  0  0  0  0  0  0
    3.5296    0.3167   -1.0213 H   0  0  0  0  0  0  0  0  0  0  0  0
   -1.9547   -0.2122   -1.8165 C   0  0  0  0  0  0  0  0  0  0  0  0
   -2.4222   -0.1327   -2.8238 H   0  0  0  0  0  0  0  0  0  0  0  0
   -2.1388    0.7645   -1.3151 H   0  0  0  0  0  0  0  0  0  0  0  0
   -2.5931   -1.3374   -1.0310 C   0  0  0  0  0  0  0  0  0  0  0  0
   -1.8320   -2.3507   -0.4319 C   0  0  0  0  0  0  0  0  0  0  0  0
   -0.7457   -2.3436   -0.5883 H   0  0  0  0  0  0  0  0  0  0  0  0
   -2.4241   -3.3536    0.3497 C   0  0  0  0  0  0  0  0  0  0  0  0
   -1.7988   -4.1234    0.8247 H   0  0  0  0  0  0  0  0  0  0  0  0
   -3.8138   -3.3523    0.5254 C   0  0  0  0  0  0  0  0  0  0  0  0
   -4.2975   -4.1279    1.1381 H   0  0  0  0  0  0  0  0  0  0  0  0
   -4.6021   -2.3605   -0.0776 C   0  0  0  0  0  0  0  0  0  0  0  0
   -5.6900   -2.3790    0.0700 H   0  0  0  0  0  0  0  0  0  0  0  0
   -4.0060   -1.3466   -0.8561 C   0  0  0  0  0  0  0  0  0  0  0  0
   -6.6302   -0.3778   -1.1709 C   0  0  0  0  0  0  0  0  0  0  0  0
   -6.9669   -1.3512   -1.5786 H   0  0  0  0  0  0  0  0  0  0  0  0
   -7.2250    0.4311   -1.6356 H   0  0  0  0  0  0  0  0  0  0  0  0
   -6.7832   -0.3484   -0.0741 H   0  0  0  0  0  0  0  0  0  0  0  0
  1 32  1  0  0  0  0
  1 31  1  0  0  0  0
  2 15  1  0  0  0  0
  2  4  1  0  0  0  0
  3 19  1  0  0  0  0
  3  4  1  0  0  0  0
  5  2  1  0  0  0  0
  6  7  1  0  0  0  0
  6  5  2  0  0  0  0
  8  6  1  0  0  0  0
  9  8  1  0  0  0  0
 10  8  2  0  0  0  0
 10 12  1  0  0  0  0
 11 10  1  0  0  0  0
 12 14  2  0  0  0  0
 13 12  1  0  0  0  0
 14  5  1  0  0  0  0
 14  3  1  0  0  0  0
 15 16  1  0  0  0  0
 15 18  1  0  0  0  0
 17 15  1  0  0  0  0
 19 21  1  0  0  0  0
 19 22  1  0  0  0  0
 20 19  1  0  0  0  0
 22 31  2  0  0  0  0
 22 23  1  0  0  0  0
 23 25  2  0  0  0  0
 24 23  1  0  0  0  0
 25 27  1  0  0  0  0
 25 26  1  0  0  0  0
 27 28  1  0  0  0  0
 29 30  1  0  0  0  0
 29 27  2  0  0  0  0
 31 29  1  0  0  0  0
 32 35  1  0  0  0  0
 33 32  1  0  0  0  0
 34 32  1  0  0  0  0
M  END
