21
 OpenBabel05122313113D

 38 39  0  0  0  0  0  0  0  0999 V2000
    0.3057    4.7234    0.5871 O   0  0  0  0  0  0  0  0  0  0  0  0
   -1.3505    6.2139    1.0027 N   0  0  0  0  0  0  0  0  0  0  0  0
   -2.3361    6.4185    1.1604 H   0  0  0  0  0  0  0  0  0  0  0  0
   -0.6751    6.9805    1.0474 H   0  0  0  0  0  0  0  0  0  0  0  0
    0.5152    2.0720    0.6195 N   0  0  0  0  0  0  0  0  0  0  0  0
    0.4945    3.1461    0.5332 H   0  0  0  0  0  0  0  0  0  0  0  0
   -1.9430    3.8454    0.6987 C   0  0  0  0  0  0  0  0  0  0  0  0
   -1.6720    3.1049    1.4787 H   0  0  0  0  0  0  0  0  0  0  0  0
   -2.9503    4.2293    0.9525 H   0  0  0  0  0  0  0  0  0  0  0  0
   -0.9012    4.9658    0.7659 C   0  0  0  0  0  0  0  0  0  0  0  0
   -1.2033    2.0716   -1.0619 C   0  0  0  0  0  0  0  0  0  0  0  0
   -1.9783    3.2092   -0.6796 C   0  0  0  0  0  0  0  0  0  0  0  0
   -2.8514    3.7756   -1.6290 C   0  0  0  0  0  0  0  0  0  0  0  0
   -3.4650    4.6415   -1.3343 H   0  0  0  0  0  0  0  0  0  0  0  0
   -2.9702    3.2629   -2.9267 C   0  0  0  0  0  0  0  0  0  0  0  0
   -3.6600    3.7349   -3.6418 H   0  0  0  0  0  0  0  0  0  0  0  0
   -2.2221    2.1346   -3.2989 C   0  0  0  0  0  0  0  0  0  0  0  0
   -2.3131    1.7114   -4.3097 H   0  0  0  0  0  0  0  0  0  0  0  0
   -1.3708    1.5387   -2.3660 C   0  0  0  0  0  0  0  0  0  0  0  0
   -0.7988    0.6370   -2.6348 H   0  0  0  0  0  0  0  0  0  0  0  0
   -0.2491    1.3614   -0.1837 C   0  0  0  0  0  2  0  0  0  0  0  0
    1.4759    1.5760    1.5583 C   0  0  0  0  0  0  0  0  0  0  0  0
    2.8188    1.9946    1.3591 C   0  0  0  0  0  0  0  0  0  0  0  0
    3.7938    1.5247    2.2530 C   0  0  0  0  0  0  0  0  0  0  0  0
    4.8438    1.8158    2.0993 H   0  0  0  0  0  0  0  0  0  0  0  0
    3.4408    0.6979    3.3299 C   0  0  0  0  0  0  0  0  0  0  0  0
    4.2148    0.3448    4.0273 H   0  0  0  0  0  0  0  0  0  0  0  0
    2.1043    0.3346    3.5289 C   0  0  0  0  0  0  0  0  0  0  0  0
    1.8285   -0.2917    4.3910 H   0  0  0  0  0  0  0  0  0  0  0  0
    1.0873    0.7644    2.6524 C   0  0  0  0  0  0  0  0  0  0  0  0
    3.1822    2.8997    0.2115 C   0  0  0  0  0  0  0  0  0  0  0  0
    4.2792    3.0022    0.1202 H   0  0  0  0  0  0  0  0  0  0  0  0
    2.7519    3.9145    0.3436 H   0  0  0  0  0  0  0  0  0  0  0  0
    2.7897    2.5159   -0.7525 H   0  0  0  0  0  0  0  0  0  0  0  0
   -0.3408    0.3730    2.9355 C   0  0  0  0  0  0  0  0  0  0  0  0
   -0.5616   -0.6443    2.5493 H   0  0  0  0  0  0  0  0  0  0  0  0
   -1.0750    1.0593    2.4721 H   0  0  0  0  0  0  0  0  0  0  0  0
   -0.5247    0.3569    4.0273 H   0  0  0  0  0  0  0  0  0  0  0  0
  1 10  2  0  0  0  0
  2  4  1  0  0  0  0
  2  3  1  0  0  0  0
  5 22  1  0  0  0  0
  6  5  1  0  0  0  0
  7 10  1  0  0  0  0
  7  9  1  0  0  0  0
  7  8  1  0  0  0  0
 10  2  1  0  0  0  0
 11 12  1  0  0  0  0
 11 21  1  0  0  0  0
 12  7  1  0  0  0  0
 13 14  1  0  0  0  0
 13 12  2  0  0  0  0
 15 13  1  0  0  0  0
 16 15  1  0  0  0  0
 17 15  2  0  0  0  0
 17 19  1  0  0  0  0
 18 17  1  0  0  0  0
 19 11  2  0  0  0  0
 20 19  1  0  0  0  0
 21  5  1  0  0  0  0
 22 30  1  0  0  0  0
 23 22  2  0  0  0  0
 23 24  1  0  0  0  0
 24 26  2  0  0  0  0
 25 24  1  0  0  0  0
 26 28  1  0  0  0  0
 26 27  1  0  0  0  0
 28 29  1  0  0  0  0
 30 35  1  0  0  0  0
 30 28  2  0  0  0  0
 31 33  1  0  0  0  0
 31 23  1  0  0  0  0
 32 31  1  0  0  0  0
 34 31  1  0  0  0  0
 35 38  1  0  0  0  0
 36 35  1  0  0  0  0
 37 35  1  0  0  0  0
M  END
