4
 OpenBabel05122313113D

 35 35  0  0  0  0  0  0  0  0999 V2000
    0.7525    2.0606    0.6876 N   0  0  0  0  0  0  0  0  0  0  0  0
    0.2196    3.2086    1.1040 N   0  0  0  0  0  2  0  0  0  0  0  0
   -1.0824    2.9712    1.0850 N   0  0  0  0  0  0  0  0  0  0  0  0
   -0.1632    1.0590    0.3901 C   0  0  0  0  0  3  0  0  0  0  0  0
   -1.3950    1.6999    0.6692 C   0  0  0  0  0  0  0  0  0  0  0  0
   -2.7959    1.1998    0.5645 C   0  0  0  0  0  0  0  0  0  0  0  0
   -3.3408    1.3747    1.5209 H   0  0  0  0  0  0  0  0  0  0  0  0
   -2.7145    0.1065    0.4216 H   0  0  0  0  0  0  0  0  0  0  0  0
   -3.5976    1.7751   -0.6174 C   0  0  0  0  0  0  0  0  0  0  0  0
   -3.8116    2.8564   -0.4598 H   0  0  0  0  0  0  0  0  0  0  0  0
   -2.9631    1.6908   -1.5235 H   0  0  0  0  0  0  0  0  0  0  0  0
   -4.9068    1.0180   -0.8496 C   0  0  0  0  0  0  0  0  0  0  0  0
   -4.6523   -0.0452   -1.0517 H   0  0  0  0  0  0  0  0  0  0  0  0
   -5.5137    1.0216    0.0844 H   0  0  0  0  0  0  0  0  0  0  0  0
   -5.7293    1.5807   -2.0083 C   0  0  0  0  0  0  0  0  0  0  0  0
   -6.0153    2.6388   -1.8288 H   0  0  0  0  0  0  0  0  0  0  0  0
   -6.6633    1.0048   -2.1663 H   0  0  0  0  0  0  0  0  0  0  0  0
   -5.1523    1.5500   -2.9555 H   0  0  0  0  0  0  0  0  0  0  0  0
   -1.9875    4.0398    1.4718 C   0  0  0  0  0  0  0  0  0  0  0  0
   -1.4088    4.7856    2.0438 H   0  0  0  0  0  0  0  0  0  0  0  0
   -2.8008    3.6290    2.0983 H   0  0  0  0  0  0  0  0  0  0  0  0
   -2.4289    4.5173    0.5756 H   0  0  0  0  0  0  0  0  0  0  0  0
    2.2104    2.0105    0.5839 C   0  0  0  0  0  0  0  0  0  0  0  0
    2.4499    0.9565    0.3599 H   0  0  0  0  0  0  0  0  0  0  0  0
    2.6281    2.2920    1.5728 H   0  0  0  0  0  0  0  0  0  0  0  0
    2.7478    2.9101   -0.5275 C   0  0  0  0  0  0  0  0  0  0  0  0
    2.2007    2.6515   -1.4576 H   0  0  0  0  0  0  0  0  0  0  0  0
    2.5313    3.9734   -0.2867 H   0  0  0  0  0  0  0  0  0  0  0  0
    4.2466    2.6965   -0.7478 C   0  0  0  0  0  0  0  0  0  0  0  0
    4.7965    2.8667    0.2056 H   0  0  0  0  0  0  0  0  0  0  0  0
    4.4072    1.6295   -1.0160 H   0  0  0  0  0  0  0  0  0  0  0  0
    4.8208    3.5941   -1.8438 C   0  0  0  0  0  0  0  0  0  0  0  0
    4.3118    3.4118   -2.8127 H   0  0  0  0  0  0  0  0  0  0  0  0
    5.9042    3.4140   -1.9950 H   0  0  0  0  0  0  0  0  0  0  0  0
    4.6902    4.6689   -1.5979 H   0  0  0  0  0  0  0  0  0  0  0  0
  1  2  1  0  0  0  0
  3  2  1  0  0  0  0
  3 19  1  0  0  0  0
  4  5  2  0  0  0  0
  4  1  1  0  0  0  0
  5  3  1  0  0  0  0
  6  5  1  0  0  0  0
  6  7  1  0  0  0  0
  8  6  1  0  0  0  0
  9 10  1  0  0  0  0
  9  6  1  0  0  0  0
 11  9  1  0  0  0  0
 12  9  1  0  0  0  0
 12 14  1  0  0  0  0
 13 12  1  0  0  0  0
 15 16  1  0  0  0  0
 15 12  1  0  0  0  0
 17 15  1  0  0  0  0
 18 15  1  0  0  0  0
 19 20  1  0  0  0  0
 19 21  1  0  0  0  0
 22 19  1  0  0  0  0
 23  1  1  0  0  0  0
 23 25  1  0  0  0  0
 24 23  1  0  0  0  0
 26 28  1  0  0  0  0
 26 23  1  0  0  0  0
 27 26  1  0  0  0  0
 29 26  1  0  0  0  0
 29 30  1  0  0  0  0
 31 29  1  0  0  0  0
 32 35  1  0  0  0  0
 32 29  1  0  0  0  0
 33 32  1  0  0  0  0
 34 32  1  0  0  0  0
M  END
