7
 OpenBabel05122313113D

 49 49  0  0  1  0  0  0  0  0999 V2000
   -4.0576    1.6133   -0.4610 O   0  0  0  0  0  0  0  0  0  0  0  0
   -5.5116   -0.8697    0.8251 O   0  0  0  0  0  0  0  0  0  0  0  0
   -5.3031   -1.5598   -1.3355 O   0  0  0  0  0  0  0  0  0  0  0  0
   -0.1083   -1.0314   -0.8300 N   0  0  0  0  0  0  0  0  0  0  0  0
    0.5672    0.9785   -1.2897 N   0  0  0  0  0  0  0  0  0  0  0  0
   -2.9885    0.0819    0.8299 N   0  0  0  0  0  0  0  0  0  0  0  0
    1.0084   -0.2226   -0.7910 C   0  0  0  0  0  2  0  0  0  0  0  0
   -1.2126   -0.3537   -1.3563 C   0  0  0  0  0  0  0  0  0  0  0  0
   -0.7730    0.9112   -1.6421 C   0  0  0  0  0  0  0  0  0  0  0  0
    1.3417    2.2286   -1.3954 C   0  0  0  0  0  0  0  0  0  0  0  0
    1.4699    2.6650   -2.8544 C   0  0  0  0  0  0  0  0  0  0  0  0
    0.7346    3.3087   -0.4948 C   0  0  0  0  0  0  0  0  0  0  0  0
   -2.5946   -0.8990   -1.4510 C   0  0  0  0  0  0  0  0  0  0  0  0
   -3.3028   -1.0110   -0.0695 C   0  0  2  0  0  0  0  0  0  0  0  0
   -3.3776    1.3630    0.5356 C   0  0  0  0  0  0  0  0  0  0  0  0
   -2.8818    2.4364    1.4887 C   0  0  0  0  0  0  0  0  0  0  0  0
   -4.8182   -1.1662   -0.2932 C   0  0  0  0  0  0  0  0  0  0  0  0
   -6.9516   -0.8490    0.6923 C   0  0  0  0  0  0  0  0  0  0  0  0
   -7.4271    0.5298    0.2442 C   0  0  0  0  0  0  0  0  0  0  0  0
   -8.9440    0.6089    0.0275 C   0  0  0  0  0  0  0  0  0  0  0  0
   -9.7835    0.3972    1.2909 C   0  0  0  0  0  0  0  0  0  0  0  0
   -0.1831   -2.3985   -0.3401 C   0  0  0  0  0  0  0  0  0  0  0  0
   -1.3265    1.7592   -2.0540 H   0  0  0  0  0  0  0  0  0  0  0  0
   -2.4398   -0.1039    1.6677 H   0  0  0  0  0  0  0  0  0  0  0  0
    2.3537    1.9562   -1.0412 H   0  0  0  0  0  0  0  0  0  0  0  0
    0.4855    2.9082   -3.3058 H   0  0  0  0  0  0  0  0  0  0  0  0
    1.9574    1.8598   -3.4357 H   0  0  0  0  0  0  0  0  0  0  0  0
    2.1068    3.5693   -2.9183 H   0  0  0  0  0  0  0  0  0  0  0  0
    0.6364    2.9523    0.5507 H   0  0  0  0  0  0  0  0  0  0  0  0
   -0.2685    3.6299   -0.8451 H   0  0  0  0  0  0  0  0  0  0  0  0
    1.3864    4.2046   -0.4908 H   0  0  0  0  0  0  0  0  0  0  0  0
   -2.6292   -1.8903   -1.9456 H   0  0  0  0  0  0  0  0  0  0  0  0
   -3.1898   -0.2140   -2.0802 H   0  0  0  0  0  0  0  0  0  0  0  0
   -2.9721   -1.9403    0.4402 H   0  0  0  0  0  0  0  0  0  0  0  0
   -2.6271    2.0509    2.4952 H   0  0  0  0  0  0  0  0  0  0  0  0
   -3.6567    3.2196    1.5768 H   0  0  0  0  0  0  0  0  0  0  0  0
   -1.9760    2.9075    1.0543 H   0  0  0  0  0  0  0  0  0  0  0  0
   -7.3331   -1.1187    1.6960 H   0  0  0  0  0  0  0  0  0  0  0  0
   -7.2579   -1.6262   -0.0380 H   0  0  0  0  0  0  0  0  0  0  0  0
   -6.8965    0.7870   -0.6952 H   0  0  0  0  0  0  0  0  0  0  0  0
   -7.1062    1.2834    0.9962 H   0  0  0  0  0  0  0  0  0  0  0  0
   -9.1799    1.6038   -0.4058 H   0  0  0  0  0  0  0  0  0  0  0  0
   -9.2411   -0.1316   -0.7482 H   0  0  0  0  0  0  0  0  0  0  0  0
   -9.5003    1.1178    2.0869 H   0  0  0  0  0  0  0  0  0  0  0  0
   -9.6629   -0.6230    1.7104 H   0  0  0  0  0  0  0  0  0  0  0  0
  -10.8639    0.5364    1.0854 H   0  0  0  0  0  0  0  0  0  0  0  0
    0.8137   -2.8680   -0.4559 H   0  0  0  0  0  0  0  0  0  0  0  0
   -0.5073   -2.4251    0.7220 H   0  0  0  0  0  0  0  0  0  0  0  0
   -0.9115   -2.9649   -0.9494 H   0  0  0  0  0  0  0  0  0  0  0  0
  1 15  2  0  0  0  0
  3 17  2  0  0  0  0
  4  7  1  0  0  0  0
  4 22  1  0  0  0  0
  5  7  1  0  0  0  0
  6 24  1  0  0  0  0
  8  4  1  0  0  0  0
  9  8  2  0  0  0  0
  9  5  1  0  0  0  0
 10  5  1  0  0  0  0
 10 25  1  0  0  0  0
 10 12  1  0  0  0  0
 11 10  1  0  0  0  0
 12 31  1  0  0  0  0
 12 29  1  0  0  0  0
 13  8  1  0  0  0  0
 13 14  1  0  0  0  0
 14 34  1  1  0  0  0
 14  6  1  0  0  0  0
 15  6  1  0  0  0  0
 15 16  1  0  0  0  0
 16 36  1  0  0  0  0
 16 35  1  0  0  0  0
 17 14  1  0  0  0  0
 17  2  1  0  0  0  0
 18  2  1  0  0  0  0
 18 38  1  0  0  0  0
 19 18  1  0  0  0  0
 19 41  1  0  0  0  0
 20 19  1  0  0  0  0
 20 21  1  0  0  0  0
 21 45  1  0  0  0  0
 21 44  1  0  0  0  0
 22 48  1  0  0  0  0
 23  9  1  0  0  0  0
 26 11  1  0  0  0  0
 27 11  1  0  0  0  0
 28 11  1  0  0  0  0
 30 12  1  0  0  0  0
 32 13  1  0  0  0  0
 33 13  1  0  0  0  0
 37 16  1  0  0  0  0
 39 18  1  0  0  0  0
 40 19  1  0  0  0  0
 42 20  1  0  0  0  0
 43 20  1  0  0  0  0
 46 21  1  0  0  0  0
 47 22  1  0  0  0  0
 49 22  1  0  0  0  0
M  END
