3
 OpenBabel05122313113D

 36 35  0  0  0  0  0  0  0  0999 V2000
    0.3556    2.5774    1.2331 N   0  0  0  0  0  0  0  0  0  0  0  0
    0.6890    2.6461   -1.0841 N   0  0  0  0  0  0  0  0  0  0  0  0
    0.9763    0.5127    0.0593 C   0  0  0  0  0  3  0  0  0  0  0  0
    2.1420   -0.0973    0.0780 C   0  0  0  0  0  0  0  0  0  0  0  0
    3.2443   -0.8399    0.1130 C   0  0  0  0  0  0  0  0  0  0  0  0
    3.8102   -1.4217    1.3989 C   0  0  0  0  0  0  0  0  0  0  0  0
    3.6662   -2.5265    1.3566 H   0  0  0  0  0  0  0  0  0  0  0  0
    4.9146   -1.2751    1.3901 H   0  0  0  0  0  0  0  0  0  0  0  0
    3.2255   -0.8832    2.7008 C   0  0  0  0  0  0  0  0  0  0  0  0
    3.6648   -1.3999    3.5771 H   0  0  0  0  0  0  0  0  0  0  0  0
    2.1281   -1.0293    2.7403 H   0  0  0  0  0  0  0  0  0  0  0  0
    3.4326    0.2008    2.8133 H   0  0  0  0  0  0  0  0  0  0  0  0
    4.0013   -1.2222   -1.1485 C   0  0  0  0  0  0  0  0  0  0  0  0
    4.0525   -2.3354   -1.1875 H   0  0  0  0  0  0  0  0  0  0  0  0
    5.0605   -0.8956   -1.0281 H   0  0  0  0  0  0  0  0  0  0  0  0
    3.4369   -0.6852   -2.4598 C   0  0  0  0  0  0  0  0  0  0  0  0
    4.0583   -1.0044   -3.3201 H   0  0  0  0  0  0  0  0  0  0  0  0
    3.4084    0.4233   -2.4550 H   0  0  0  0  0  0  0  0  0  0  0  0
    2.4051   -1.0474   -2.6358 H   0  0  0  0  0  0  0  0  0  0  0  0
    0.6953    1.9364    0.0764 C   0  0  0  0  0  3  0  0  0  0  0  0
    0.8397    2.0798    2.5141 C   0  0  0  0  0  0  0  0  0  0  0  0
    1.6440    1.3450    2.3499 H   0  0  0  0  0  0  0  0  0  0  0  0
    0.0268    1.5952    3.0927 H   0  0  0  0  0  0  0  0  0  0  0  0
    1.2387    2.9276    3.1102 H   0  0  0  0  0  0  0  0  0  0  0  0
   -0.7907    3.4814    1.3198 C   0  0  0  0  0  0  0  0  0  0  0  0
   -1.3304    3.5174    0.3582 H   0  0  0  0  0  0  0  0  0  0  0  0
   -0.5014    4.5108    1.6216 H   0  0  0  0  0  0  0  0  0  0  0  0
   -1.4952    3.0814    2.0789 H   0  0  0  0  0  0  0  0  0  0  0  0
    0.7607    1.9938   -2.3845 C   0  0  0  0  0  0  0  0  0  0  0  0
    0.6071    0.9092   -2.2663 H   0  0  0  0  0  0  0  0  0  0  0  0
    1.7513    2.1643   -2.8556 H   0  0  0  0  0  0  0  0  0  0  0  0
   -0.0287    2.4046   -3.0464 H   0  0  0  0  0  0  0  0  0  0  0  0
    0.7165    4.1012   -1.1294 C   0  0  0  0  0  0  0  0  0  0  0  0
    1.0604    4.5073   -0.1623 H   0  0  0  0  0  0  0  0  0  0  0  0
   -0.2713    4.5423   -1.3826 H   0  0  0  0  0  0  0  0  0  0  0  0
    1.4384    4.4108   -1.9124 H   0  0  0  0  0  0  0  0  0  0  0  0
  1 25  1  0  0  0  0
  1 21  1  0  0  0  0
  2 20  1  0  0  0  0
  3 20  1  0  0  0  0
  3  4  2  0  0  0  0
  4  5  2  0  0  0  0
  5  6  1  0  0  0  0
  6  9  1  0  0  0  0
  7  6  1  0  0  0  0
  8  6  1  0  0  0  0
  9 11  1  0  0  0  0
  9 12  1  0  0  0  0
  9 10  1  0  0  0  0
 13 15  1  0  0  0  0
 13  5  1  0  0  0  0
 14 13  1  0  0  0  0
 16 18  1  0  0  0  0
 16 13  1  0  0  0  0
 17 16  1  0  0  0  0
 19 16  1  0  0  0  0
 20  1  1  0  0  0  0
 21 23  1  0  0  0  0
 21 24  1  0  0  0  0
 22 21  1  0  0  0  0
 25 27  1  0  0  0  0
 25 28  1  0  0  0  0
 26 25  1  0  0  0  0
 29 30  1  0  0  0  0
 29  2  1  0  0  0  0
 31 29  1  0  0  0  0
 32 29  1  0  0  0  0
 33  2  1  0  0  0  0
 33 34  1  0  0  0  0
 35 33  1  0  0  0  0
 36 33  1  0  0  0  0
M  END
