3
 OpenBabel05122313113D

 36 38  0  0  0  0  0  0  0  0999 V2000
   -2.7906    0.1484   -0.1203 Si  0  0  0  0  0  0  0  0  0  0  0  0
   -1.3466    1.0345   -0.5105 N   0  0  0  0  0  2  0  0  0  0  0  0
   -0.1803    1.3440   -0.6716 C   0  0  0  0  0  1  0  0  0  0  0  0
   -2.6095   -0.7615    1.5227 C   0  0  0  0  0  0  0  0  0  0  0  0
   -1.7900   -1.9113    1.6168 C   0  0  0  0  0  0  0  0  0  0  0  0
   -1.6493   -2.5959    2.8316 C   0  0  0  0  0  0  0  0  0  0  0  0
   -2.3249   -2.1426    3.9765 C   0  0  0  0  0  0  0  0  0  0  0  0
   -3.1338   -0.9983    3.9040 C   0  0  0  0  0  0  0  0  0  0  0  0
   -3.2745   -0.3140    2.6856 C   0  0  0  0  0  0  0  0  0  0  0  0
   -4.1948    1.3980   -0.0297 C   0  0  0  0  0  0  0  0  0  0  0  0
   -3.9482    2.7862   -0.0945 C   0  0  0  0  0  0  0  0  0  0  0  0
   -5.0035    3.7083   -0.0098 C   0  0  0  0  0  0  0  0  0  0  0  0
   -6.3232    3.2538    0.1410 C   0  0  0  0  0  0  0  0  0  0  0  0
   -6.5858    1.8751    0.2045 C   0  0  0  0  0  0  0  0  0  0  0  0
   -5.5292    0.9566    0.1183 C   0  0  0  0  0  0  0  0  0  0  0  0
   -3.0440   -1.1087   -1.5079 C   0  0  0  0  0  0  0  0  0  0  0  0
   -3.6978   -2.3386   -1.2712 C   0  0  0  0  0  0  0  0  0  0  0  0
   -3.8981   -3.2604   -2.3117 C   0  0  0  0  0  0  0  0  0  0  0  0
   -3.4415   -2.9669   -3.6068 C   0  0  0  0  0  0  0  0  0  0  0  0
   -2.7849   -1.7502   -3.8577 C   0  0  0  0  0  0  0  0  0  0  0  0
   -2.5906   -0.8296   -2.8172 C   0  0  0  0  0  0  0  0  0  0  0  0
   -1.2508   -2.2795    0.7298 H   0  0  0  0  0  0  0  0  0  0  0  0
   -1.0010   -3.4833    2.8864 H   0  0  0  0  0  0  0  0  0  0  0  0
   -2.2154   -2.6814    4.9305 H   0  0  0  0  0  0  0  0  0  0  0  0
   -3.6632   -0.6387    4.8001 H   0  0  0  0  0  0  0  0  0  0  0  0
   -3.9185    0.5786    2.6349 H   0  0  0  0  0  0  0  0  0  0  0  0
   -2.9129    3.1430   -0.2175 H   0  0  0  0  0  0  0  0  0  0  0  0
   -4.7954    4.7882   -0.0633 H   0  0  0  0  0  0  0  0  0  0  0  0
   -7.1516    3.9760    0.2065 H   0  0  0  0  0  0  0  0  0  0  0  0
   -7.6202    1.5155    0.3182 H   0  0  0  0  0  0  0  0  0  0  0  0
   -5.7493   -0.1231    0.1632 H   0  0  0  0  0  0  0  0  0  0  0  0
   -4.0420   -2.5882   -0.2544 H   0  0  0  0  0  0  0  0  0  0  0  0
   -4.4065   -4.2158   -2.1092 H   0  0  0  0  0  0  0  0  0  0  0  0
   -3.5920   -3.6911   -4.4223 H   0  0  0  0  0  0  0  0  0  0  0  0
   -2.4159   -1.5205   -4.8690 H   0  0  0  0  0  0  0  0  0  0  0  0
   -2.0575    0.1137   -3.0178 H   0  0  0  0  0  0  0  0  0  0  0  0
  1 10  1  0  0  0  0
  1  4  1  0  0  0  0
  2  1  1  0  0  0  0
  3  2  1  0  0  0  0
  4  5  2  0  0  0  0
  4  9  1  0  0  0  0
  5  6  1  0  0  0  0
  6 23  1  0  0  0  0
  6  7  2  0  0  0  0
  7 24  1  0  0  0  0
  8  7  1  0  0  0  0
  8 25  1  0  0  0  0
  9  8  2  0  0  0  0
 10 15  1  0  0  0  0
 11 10  2  0  0  0  0
 11 12  1  0  0  0  0
 12 13  2  0  0  0  0
 13 14  1  0  0  0  0
 13 29  1  0  0  0  0
 14 30  1  0  0  0  0
 15 31  1  0  0  0  0
 15 14  2  0  0  0  0
 16 17  1  0  0  0  0
 16  1  1  0  0  0  0
 17 32  1  0  0  0  0
 18 33  1  0  0  0  0
 18 17  2  0  0  0  0
 19 18  1  0  0  0  0
 20 19  2  0  0  0  0
 20 21  1  0  0  0  0
 21 16  2  0  0  0  0
 22  5  1  0  0  0  0
 26  9  1  0  0  0  0
 27 11  1  0  0  0  0
 28 12  1  0  0  0  0
 34 19  1  0  0  0  0
 35 20  1  0  0  0  0
 36 21  1  0  0  0  0
M  END
