1
 OpenBabel05122313113D

 22 23  0  0  1  0  0  0  0  0999 V2000
   -0.0397   -0.5633   -1.1015 C   0  0  2  0  0  3  0  0  0  0  0  0
    0.2184   -1.6194   -0.1595 C   0  0  0  0  0  0  0  0  0  0  0  0
   -0.4602   -1.9504    0.6350 H   0  0  0  0  0  0  0  0  0  0  0  0
    1.5409   -2.1082   -0.3877 C   0  0  0  0  0  0  0  0  0  0  0  0
    2.0624   -2.8720    0.2004 H   0  0  0  0  0  0  0  0  0  0  0  0
    2.0991   -1.3705   -1.4833 C   0  0  0  0  0  0  0  0  0  0  0  0
    3.1275   -1.4642   -1.8479 H   0  0  0  0  0  0  0  0  0  0  0  0
    1.1435   -0.4250   -1.9234 C   0  0  0  0  0  0  0  0  0  0  0  0
    1.2538    0.3196   -2.7201 H   0  0  0  0  0  0  0  0  0  0  0  0
   -1.2018    0.3714   -1.2151 C   0  0  0  0  0  0  0  0  0  0  0  0
   -2.4734    0.0636   -0.4863 C   0  0  0  0  0  0  0  0  0  0  0  0
   -3.2545    1.1566   -0.0523 C   0  0  0  0  0  0  0  0  0  0  0  0
   -2.8823    2.1724   -0.2523 H   0  0  0  0  0  0  0  0  0  0  0  0
   -4.4647    0.9402    0.6150 C   0  0  0  0  0  0  0  0  0  0  0  0
   -5.0591    1.7970    0.9668 H   0  0  0  0  0  0  0  0  0  0  0  0
   -4.9246   -0.3710    0.8297 C   0  0  0  0  0  0  0  0  0  0  0  0
   -5.8800   -0.5415    1.3490 H   0  0  0  0  0  0  0  0  0  0  0  0
   -4.1711   -1.4634    0.3719 C   0  0  0  0  0  0  0  0  0  0  0  0
   -4.5428   -2.4891    0.5162 H   0  0  0  0  0  0  0  0  0  0  0  0
   -2.9462   -1.2497   -0.2768 C   0  0  0  0  0  0  0  0  0  0  0  0
   -2.3766   -2.1086   -0.6605 H   0  0  0  0  0  0  0  0  0  0  0  0
   -1.0858    1.4007   -1.8795 O   0  0  0  0  0  0  0  0  0  0  0  0
  1 10  1  1  0  0  0
  1  2  1  0  0  0  0
  2  3  1  0  0  0  0
  4  2  2  0  0  0  0
  4  5  1  0  0  0  0
  6  4  1  0  0  0  0
  7  6  1  0  0  0  0
  8  6  2  0  0  0  0
  8  1  1  0  0  0  0
  9  8  1  0  0  0  0
 10 11  1  0  0  0  0
 11 20  2  0  0  0  0
 11 12  1  0  0  0  0
 12 14  2  0  0  0  0
 13 12  1  0  0  0  0
 14 16  1  0  0  0  0
 14 15  1  0  0  0  0
 16 17  1  0  0  0  0
 18 19  1  0  0  0  0
 18 16  2  0  0  0  0
 20 18  1  0  0  0  0
 21 20  1  0  0  0  0
 22 10  2  0  0  0  0
M  END
