1
 OpenBabel05122313113D

 12 12  0  0  0  0  0  0  0  0999 V2000
    3.1209    0.4650   -0.0428 C   0  0  0  0  0  3  0  0  0  0  0  0
    4.0545    0.4120    1.0173 C   0  0  0  0  0  0  0  0  0  0  0  0
    5.2596    1.1353    0.9492 C   0  0  0  0  0  0  0  0  0  0  0  0
    5.9675    1.0980    1.7948 H   0  0  0  0  0  0  0  0  0  0  0  0
    5.5621    1.8950   -0.1910 C   0  0  0  0  0  0  0  0  0  0  0  0
    6.5080    2.4548   -0.2347 H   0  0  0  0  0  0  0  0  0  0  0  0
    4.6644    1.9306   -1.2672 C   0  0  0  0  0  0  0  0  0  0  0  0
    4.9006    2.5120   -2.1707 H   0  0  0  0  0  0  0  0  0  0  0  0
    3.4546    1.2142   -1.1865 C   0  0  0  0  0  0  0  0  0  0  0  0
    2.7539    1.2509   -2.0364 H   0  0  0  0  0  0  0  0  0  0  0  0
    3.7464   -0.3740    2.1088 O   0  0  0  0  0  0  0  0  0  0  0  0
    4.4579   -0.2794    2.7706 H   0  0  0  0  0  0  0  0  0  0  0  0
  1  2  1  0  0  0  0
  2 11  1  0  0  0  0
  3  2  2  0  0  0  0
  3  4  1  0  0  0  0
  5  3  1  0  0  0  0
  6  5  1  0  0  0  0
  7  9  1  0  0  0  0
  7  5  2  0  0  0  0
  8  7  1  0  0  0  0
  9  1  2  0  0  0  0
 10  9  1  0  0  0  0
 11 12  1  0  0  0  0
M  END
