2
 OpenBabel05122313113D

 23 23  0  0  1  0  0  0  0  0999 V2000
   -3.6204    2.1365   -0.8584 N   0  0  0  0  0  0  0  0  0  0  0  0
   -0.8756   -0.1560   -1.4602 C   0  0  0  0  0  3  0  0  0  0  0  0
   -1.9710    0.4313   -1.1969 C   0  0  0  0  0  0  0  0  0  0  0  0
   -3.1798    0.8517   -0.6889 C   0  0  2  0  0  3  0  0  0  0  0  0
   -4.0278   -0.1430    0.0216 C   0  0  0  0  0  0  0  0  0  0  0  0
   -5.4222   -0.2297   -0.2012 C   0  0  0  0  0  0  0  0  0  0  0  0
   -5.9100    0.4669   -0.8992 H   0  0  0  0  0  0  0  0  0  0  0  0
   -6.1791   -1.2299    0.4237 C   0  0  0  0  0  0  0  0  0  0  0  0
   -7.2599   -1.2976    0.2279 H   0  0  0  0  0  0  0  0  0  0  0  0
   -5.5589   -2.1526    1.2821 C   0  0  0  0  0  0  0  0  0  0  0  0
   -6.1557   -2.9371    1.7715 H   0  0  0  0  0  0  0  0  0  0  0  0
   -4.1727   -2.0801    1.4989 C   0  0  0  0  0  0  0  0  0  0  0  0
   -3.6718   -2.8053    2.1573 H   0  0  0  0  0  0  0  0  0  0  0  0
   -3.4108   -1.0910    0.8680 C   0  0  0  0  0  0  0  0  0  0  0  0
   -2.3247   -1.0430    1.0194 H   0  0  0  0  0  0  0  0  0  0  0  0
   -2.8649    3.0474   -1.7032 C   0  0  0  0  0  0  0  0  0  0  0  0
   -2.3292    2.4702   -2.4795 H   0  0  0  0  0  0  0  0  0  0  0  0
   -2.1124    3.6174   -1.1137 H   0  0  0  0  0  0  0  0  0  0  0  0
   -3.5592    3.7670   -2.1822 H   0  0  0  0  0  0  0  0  0  0  0  0
   -4.6291    2.7652   -0.0204 C   0  0  0  0  0  0  0  0  0  0  0  0
   -4.9757    2.0690    0.7617 H   0  0  0  0  0  0  0  0  0  0  0  0
   -5.5051    3.0997   -0.6175 H   0  0  0  0  0  0  0  0  0  0  0  0
   -4.1932    3.6612    0.4735 H   0  0  0  0  0  0  0  0  0  0  0  0
  1  4  1  0  0  0  0
  1 20  1  0  0  0  0
  2  3  3  0  0  0  0
  4  3  1  6  0  0  0
  4  5  1  0  0  0  0
  5 14  1  0  0  0  0
  6  5  2  0  0  0  0
  6  8  1  0  0  0  0
  7  6  1  0  0  0  0
  8 10  2  0  0  0  0
  9  8  1  0  0  0  0
 10 12  1  0  0  0  0
 10 11  1  0  0  0  0
 12 13  1  0  0  0  0
 14 15  1  0  0  0  0
 14 12  2  0  0  0  0
 16 18  1  0  0  0  0
 16  1  1  0  0  0  0
 17 16  1  0  0  0  0
 19 16  1  0  0  0  0
 20 23  1  0  0  0  0
 20 21  1  0  0  0  0
 22 20  1  0  0  0  0
M  END
