7
 OpenBabel05122313113D

 28 29  0  0  0  0  0  0  0  0999 V2000
   -1.2598   -0.8265    1.8109 N   0  0  0  0  0  0  0  0  0  0  0  0
    0.6900   -1.5377    2.3481 N   0  0  0  0  0  0  0  0  0  0  0  0
   -2.4088   -0.3311    1.0981 C   0  0  0  0  0  0  0  0  0  0  0  0
   -2.7134    1.0448    1.1769 C   0  0  0  0  0  0  0  0  0  0  0  0
   -1.3126   -1.1714    3.1615 C   0  0  0  0  0  0  0  0  0  0  0  0
   -2.2318   -1.0661    3.7446 H   0  0  0  0  0  0  0  0  0  0  0  0
   -0.0127   -1.0481    1.2831 C   0  0  0  0  0  2  0  0  0  0  0  0
   -0.0687   -1.6265    3.5033 C   0  0  0  0  0  0  0  0  0  0  0  0
    0.3273   -2.0055    4.4497 H   0  0  0  0  0  0  0  0  0  0  0  0
   -2.9875   -2.7385    0.4904 C   0  0  0  0  0  0  0  0  0  0  0  0
   -1.9112   -2.9942    0.5060 H   0  0  0  0  0  0  0  0  0  0  0  0
   -3.4511   -3.2621   -0.3653 H   0  0  0  0  0  0  0  0  0  0  0  0
   -3.4336   -3.1530    1.4199 H   0  0  0  0  0  0  0  0  0  0  0  0
   -3.8355    1.5049    0.4639 C   0  0  0  0  0  0  0  0  0  0  0  0
   -4.0853    2.5772    0.5038 H   0  0  0  0  0  0  0  0  0  0  0  0
   -5.8420    1.1464   -1.0518 C   0  0  0  0  0  0  0  0  0  0  0  0
   -5.8210    0.8079   -2.1077 H   0  0  0  0  0  0  0  0  0  0  0  0
   -5.8969    2.2515   -1.0427 H   0  0  0  0  0  0  0  0  0  0  0  0
   -6.7853    0.7592   -0.6133 H   0  0  0  0  0  0  0  0  0  0  0  0
   -4.3334   -0.7379   -0.2905 C   0  0  0  0  0  0  0  0  0  0  0  0
   -4.9728   -1.4371   -0.8519 H   0  0  0  0  0  0  0  0  0  0  0  0
   -3.2330   -1.2541    0.4142 C   0  0  0  0  0  0  0  0  0  0  0  0
   -4.6466    0.6359   -0.2897 C   0  0  0  0  0  0  0  0  0  0  0  0
   -1.9006    1.9802    2.0336 C   0  0  0  0  0  0  0  0  0  0  0  0
   -2.2036    1.9024    3.0996 H   0  0  0  0  0  0  0  0  0  0  0  0
   -2.0491    3.0328    1.7286 H   0  0  0  0  0  0  0  0  0  0  0  0
   -0.8179    1.7519    1.9962 H   0  0  0  0  0  0  0  0  0  0  0  0
    1.6640   -1.8317    2.2730 H   0  0  0  0  0  0  0  0  0  0  0  0
  1  5  1  0  0  0  0
  2  8  1  0  0  0  0
  3  4  1  0  0  0  0
  3  1  1  0  0  0  0
  4 24  1  0  0  0  0
  5  8  2  0  0  0  0
  5  6  1  0  0  0  0
  7  1  1  0  0  0  0
  7  2  1  0  0  0  0
  8  9  1  0  0  0  0
 10 11  1  0  0  0  0
 10 13  1  0  0  0  0
 12 10  1  0  0  0  0
 14 15  1  0  0  0  0
 14  4  2  0  0  0  0
 16 18  1  0  0  0  0
 16 19  1  0  0  0  0
 16 23  1  0  0  0  0
 17 16  1  0  0  0  0
 20 23  2  0  0  0  0
 20 22  1  0  0  0  0
 21 20  1  0  0  0  0
 22 10  1  0  0  0  0
 22  3  2  0  0  0  0
 23 14  1  0  0  0  0
 24 25  1  0  0  0  0
 26 24  1  0  0  0  0
 27 24  1  0  0  0  0
 28  2  1  0  0  0  0
M  END
