3
 OpenBabel05122313113D

 40 44  0  0  0  0  0  0  0  0999 V2000
    1.9271    0.8323    1.1988 C   0  0  0  0  0  0  0  0  0  0  0  0
    1.0873    1.3858    0.1476 C   0  0  0  0  0  0  0  0  0  0  0  0
    0.0992    0.3966   -0.2411 C   0  0  0  0  0  3  0  0  0  0  0  0
    0.2366   -0.7124    0.6873 C   0  0  0  0  0  0  0  0  0  0  0  0
    1.3927   -0.4823    1.5360 C   0  0  0  0  0  0  0  0  0  0  0  0
    1.7632   -1.4491    2.5167 C   0  0  0  0  0  0  0  0  0  0  0  0
    0.9921   -2.5917    2.6509 C   0  0  0  0  0  0  0  0  0  0  0  0
   -0.1481   -2.8173    1.8185 C   0  0  0  0  0  0  0  0  0  0  0  0
   -0.5283   -1.9111    0.8436 C   0  0  0  0  0  0  0  0  0  0  0  0
    3.0052    1.5972    1.7335 C   0  0  0  0  0  0  0  0  0  0  0  0
    3.2201    2.8790    1.2559 C   0  0  0  0  0  0  0  0  0  0  0  0
    2.3929    3.4305    0.2284 C   0  0  0  0  0  0  0  0  0  0  0  0
    1.3522    2.7097   -0.3303 C   0  0  0  0  0  0  0  0  0  0  0  0
   -1.0295    0.5891   -1.2180 C   0  0  0  0  0  0  0  0  0  0  0  0
   -2.3042    1.0601   -0.5418 C   0  0  0  0  0  0  0  0  0  0  0  0
   -2.4075    2.3399   -0.0015 C   0  0  0  0  0  0  0  0  0  0  0  0
   -3.5890    2.7905    0.6410 C   0  0  0  0  0  0  0  0  0  0  0  0
   -4.6915    1.9569    0.7469 C   0  0  0  0  0  0  0  0  0  0  0  0
   -4.6375    0.6383    0.2153 C   0  0  0  0  0  0  0  0  0  0  0  0
   -5.7338   -0.2675    0.2887 C   0  0  0  0  0  0  0  0  0  0  0  0
   -5.6099   -1.5384   -0.2461 C   0  0  0  0  0  0  0  0  0  0  0  0
   -4.3740   -1.9009   -0.8497 C   0  0  0  0  0  0  0  0  0  0  0  0
   -3.3305   -1.0911   -0.9394 N   0  0  0  0  0  0  0  0  0  0  0  0
   -3.4306    0.1733   -0.4295 C   0  0  0  0  0  0  0  0  0  0  0  0
    2.6369   -1.2747    3.1618 H   0  0  0  0  0  0  0  0  0  0  0  0
    1.2587   -3.3423    3.4098 H   0  0  0  0  0  0  0  0  0  0  0  0
   -0.7361   -3.7368    1.9602 H   0  0  0  0  0  0  0  0  0  0  0  0
   -1.4091   -2.0742    0.2046 H   0  0  0  0  0  0  0  0  0  0  0  0
    3.6386    1.1743    2.5274 H   0  0  0  0  0  0  0  0  0  0  0  0
    4.0406    3.4854    1.6671 H   0  0  0  0  0  0  0  0  0  0  0  0
    2.5951    4.4522   -0.1269 H   0  0  0  0  0  0  0  0  0  0  0  0
    0.7301    3.1438   -1.1269 H   0  0  0  0  0  0  0  0  0  0  0  0
   -1.2446   -0.3618   -1.7400 H   0  0  0  0  0  0  0  0  0  0  0  0
   -0.7218    1.3273   -1.9862 H   0  0  0  0  0  0  0  0  0  0  0  0
   -1.5459    3.0218   -0.0713 H   0  0  0  0  0  0  0  0  0  0  0  0
   -3.6250    3.8106    1.0520 H   0  0  0  0  0  0  0  0  0  0  0  0
   -5.6157    2.2984    1.2388 H   0  0  0  0  0  0  0  0  0  0  0  0
   -6.6681    0.0588    0.7728 H   0  0  0  0  0  0  0  0  0  0  0  0
   -6.4378   -2.2616   -0.2080 H   0  0  0  0  0  0  0  0  0  0  0  0
   -4.2493   -2.9142   -1.2737 H   0  0  0  0  0  0  0  0  0  0  0  0
  1  5  1  0  0  0  0
  1 10  1  0  0  0  0
  2  1  2  0  0  0  0
  3  2  1  0  0  0  0
  3  4  1  0  0  0  0
  4  9  2  0  0  0  0
  4  5  1  0  0  0  0
  5  6  2  0  0  0  0
  6  7  1  0  0  0  0
  6 25  1  0  0  0  0
  7 26  1  0  0  0  0
  8 27  1  0  0  0  0
  8  7  2  0  0  0  0
  9  8  1  0  0  0  0
 10 29  1  0  0  0  0
 11 30  1  0  0  0  0
 11 10  2  0  0  0  0
 12 11  1  0  0  0  0
 13  2  1  0  0  0  0
 13 12  2  0  0  0  0
 14 15  1  0  0  0  0
 14  3  1  0  0  0  0
 15 24  2  0  0  0  0
 15 16  1  0  0  0  0
 16 17  2  0  0  0  0
 17 18  1  0  0  0  0
 17 36  1  0  0  0  0
 18 37  1  0  0  0  0
 19 20  1  0  0  0  0
 19 18  2  0  0  0  0
 20 38  1  0  0  0  0
 21 39  1  0  0  0  0
 21 20  2  0  0  0  0
 22 21  1  0  0  0  0
 23 22  2  0  0  0  0
 23 24  1  0  0  0  0
 24 19  1  0  0  0  0
 28  9  1  0  0  0  0
 31 12  1  0  0  0  0
 32 13  1  0  0  0  0
 33 14  1  0  0  0  0
 34 14  1  0  0  0  0
 35 16  1  0  0  0  0
 40 22  1  0  0  0  0
M  END
