7
 OpenBabel05122313113D

 12 12  0  0  0  0  0  0  0  0999 V2000
   -3.8231    1.0737    0.1731 S   0  0  0  0  0  0  0  0  0  0  0  0
   -2.5994   -1.1605   -0.3267 C   0  0  0  0  0  0  0  0  0  0  0  0
   -1.8178   -1.8934   -0.5588 H   0  0  0  0  0  0  0  0  0  0  0  0
   -1.1507    2.1979   -0.5854 N   0  0  0  0  0  0  0  0  0  0  0  0
   -2.0479    2.6642   -0.7757 H   0  0  0  0  0  0  0  0  0  0  0  0
   -0.3080    2.7719   -0.6479 H   0  0  0  0  0  0  0  0  0  0  0  0
   -1.0484    0.8922   -0.3114 C   0  0  0  0  0  2  0  0  0  0  0  0
   -2.3222    0.2012   -0.1850 C   0  0  0  0  0  0  0  0  0  0  0  0
   -4.7539   -0.3738    0.1066 C   0  0  0  0  0  0  0  0  0  0  0  0
   -5.8308   -0.3385    0.3149 H   0  0  0  0  0  0  0  0  0  0  0  0
   -3.9724   -1.4833   -0.1744 C   0  0  0  0  0  0  0  0  0  0  0  0
   -4.3777   -2.5009   -0.2524 H   0  0  0  0  0  0  0  0  0  0  0  0
  2  8  2  0  0  0  0
  2 11  1  0  0  0  0
  3  2  1  0  0  0  0
  4  7  1  0  0  0  0
  5  4  1  0  0  0  0
  6  4  1  0  0  0  0
  7  8  1  0  0  0  0
  8  1  1  0  0  0  0
  9  1  1  0  0  0  0
  9 10  1  0  0  0  0
 11  9  2  0  0  0  0
 12 11  1  0  0  0  0
M  END
