3
 OpenBabel05122313113D

 31 31  0  0  1  0  0  0  0  0999 V2000
   -3.8879   -0.3533   -0.0226 Si  0  0  0  0  0  0  0  0  0  0  0  0
   -0.8200    2.4511   -0.1128 C   0  0  0  0  0  0  0  0  0  0  0  0
   -2.3317    0.7038    0.1911 C   0  0  1  0  0  3  0  0  0  0  0  0
   -1.8607    1.7008   -0.7443 C   0  0  0  0  0  0  0  0  0  0  0  0
   -1.5615    0.8557    1.3979 C   0  0  0  0  0  0  0  0  0  0  0  0
   -1.9055    0.2483    2.7270 C   0  0  0  0  0  0  0  0  0  0  0  0
   -1.0273    0.1351    3.3893 H   0  0  0  0  0  0  0  0  0  0  0  0
   -2.3841   -0.7421    2.6267 H   0  0  0  0  0  0  0  0  0  0  0  0
   -2.6256    0.9077    3.2587 H   0  0  0  0  0  0  0  0  0  0  0  0
   -2.3996    1.9835   -2.1159 C   0  0  0  0  0  0  0  0  0  0  0  0
   -3.1930    2.7607   -2.0731 H   0  0  0  0  0  0  0  0  0  0  0  0
   -2.8312    1.0756   -2.5742 H   0  0  0  0  0  0  0  0  0  0  0  0
   -1.6008    2.3531   -2.7877 H   0  0  0  0  0  0  0  0  0  0  0  0
   -0.6122    1.9165    1.2005 C   0  0  0  0  0  0  0  0  0  0  0  0
    0.2296    2.5807    2.2515 C   0  0  0  0  0  0  0  0  0  0  0  0
   -0.2026    3.5730    2.5044 H   0  0  0  0  0  0  0  0  0  0  0  0
    1.2679    2.7639    1.9134 H   0  0  0  0  0  0  0  0  0  0  0  0
    0.2731    1.9965    3.1872 H   0  0  0  0  0  0  0  0  0  0  0  0
   -0.1760    3.6908   -0.6495 C   0  0  0  0  0  0  0  0  0  0  0  0
   -0.8048    4.5752   -0.4061 H   0  0  0  0  0  0  0  0  0  0  0  0
   -0.0546    3.6491   -1.7477 H   0  0  0  0  0  0  0  0  0  0  0  0
    0.8247    3.8630   -0.2092 H   0  0  0  0  0  0  0  0  0  0  0  0
   -3.6907   -2.1760    0.4492 C   0  0  0  0  0  0  0  0  0  0  0  0
   -2.8636   -2.6349   -0.1266 H   0  0  0  0  0  0  0  0  0  0  0  0
   -4.6258   -2.7189    0.2011 H   0  0  0  0  0  0  0  0  0  0  0  0
   -3.5037   -2.3165    1.5328 H   0  0  0  0  0  0  0  0  0  0  0  0
   -5.2437    0.4271    1.0520 C   0  0  0  0  0  0  0  0  0  0  0  0
   -6.2054   -0.1114    0.9250 H   0  0  0  0  0  0  0  0  0  0  0  0
   -5.4053    1.4883    0.7737 H   0  0  0  0  0  0  0  0  0  0  0  0
   -4.9752    0.3950    2.1277 H   0  0  0  0  0  0  0  0  0  0  0  0
   -4.3240   -0.2731   -1.4574 H   0  0  0  0  0  0  0  0  0  0  0  0
  1 23  1  0  0  0  0
  1 27  1  0  0  0  0
  2 14  1  0  0  0  0
  3  1  1  1  0  0  0
  3  5  1  0  0  0  0
  4  2  2  0  0  0  0
  4  3  1  0  0  0  0
  5  6  1  0  0  0  0
  6  9  1  0  0  0  0
  6  7  1  0  0  0  0
  8  6  1  0  0  0  0
 10 11  1  0  0  0  0
 10  4  1  0  0  0  0
 12 10  1  0  0  0  0
 13 10  1  0  0  0  0
 14  5  2  0  0  0  0
 14 15  1  0  0  0  0
 15 16  1  0  0  0  0
 15 18  1  0  0  0  0
 17 15  1  0  0  0  0
 19 20  1  0  0  0  0
 19 22  1  0  0  0  0
 19  2  1  0  0  0  0
 21 19  1  0  0  0  0
 23 26  1  0  0  0  0
 24 23  1  0  0  0  0
 25 23  1  0  0  0  0
 27 30  1  0  0  0  0
 28 27  1  0  0  0  0
 29 27  1  0  0  0  0
 31  1  1  0  0  0  0
M  END
