4
 OpenBabel05122313113D

 20 20  0  0  1  0  0  0  0  0999 V2000
    0.5569    2.4587   -0.2626 O   0  0  0  0  0  0  0  0  0  0  0  0
    0.3942   -0.7484    1.5787 C   0  0  0  0  0  3  0  0  0  0  0  0
   -0.0776   -1.2065    2.4637 H   0  0  0  0  0  0  0  0  0  0  0  0
    0.2050    0.6761    1.4273 C   0  0  0  0  0  3  0  0  0  0  0  0
   -0.2814    1.3063    2.1847 H   0  0  0  0  0  0  0  0  0  0  0  0
    0.6385    1.1799    0.1622 C   0  0  1  0  0  3  0  0  0  0  0  0
    1.0836    0.1604   -0.7547 C   0  0  0  0  0  3  0  0  0  0  0  0
    1.2154    0.4976   -1.7952 H   0  0  0  0  0  0  0  0  0  0  0  0
    2.1094   -0.8724   -0.2683 C   0  0  2  0  0  0  0  0  0  0  0  0
    2.0815   -1.7237   -0.9823 H   0  0  0  0  0  0  0  0  0  0  0  0
    1.6969   -1.3893    1.1412 C   0  0  0  0  0  0  0  0  0  0  0  0
    1.5879   -2.4915    1.1248 H   0  0  0  0  0  0  0  0  0  0  0  0
    2.4944   -1.1615    1.8813 H   0  0  0  0  0  0  0  0  0  0  0  0
    3.4626   -0.3098   -0.3074 C   0  0  0  0  0  0  0  0  0  0  0  0
    4.5799    0.1871   -0.3449 C   0  0  0  0  0  0  0  0  0  0  0  0
    5.5693    0.6204   -0.3799 H   0  0  0  0  0  0  0  0  0  0  0  0
   -0.2780    3.3423    0.4756 C   0  0  0  0  0  0  0  0  0  0  0  0
   -1.3092    2.9317    0.5563 H   0  0  0  0  0  0  0  0  0  0  0  0
   -0.3028    4.2941   -0.0851 H   0  0  0  0  0  0  0  0  0  0  0  0
    0.1227    3.5316    1.4951 H   0  0  0  0  0  0  0  0  0  0  0  0
  1 17  1  0  0  0  0
  2  3  1  0  0  0  0
  4  2  1  0  0  0  0
  4  5  1  0  0  0  0
  6  1  1  6  0  0  0
  6  4  1  0  0  0  0
  7  9  1  0  0  0  0
  7  6  1  0  0  0  0
  8  7  1  0  0  0  0
  9 10  1  6  0  0  0
  9 11  1  0  0  0  0
 11  2  1  0  0  0  0
 11 13  1  0  0  0  0
 12 11  1  0  0  0  0
 14  9  1  0  0  0  0
 15 14  3  0  0  0  0
 16 15  1  0  0  0  0
 17 18  1  0  0  0  0
 17 20  1  0  0  0  0
 19 17  1  0  0  0  0
M  END
