35
 OpenBabel05122313113D

 51 53  0  0  0  0  0  0  0  0999 V2000
   -0.2730    1.0061    0.0465 P   0  0  0  0  0  4  0  0  0  0  0  0
   -1.8167    1.7040    0.7224 C   0  0  0  0  0  0  0  0  0  0  0  0
   -3.0125    0.9700    0.5894 C   0  0  0  0  0  0  0  0  0  0  0  0
   -2.9929   -0.0313    0.1343 H   0  0  0  0  0  0  0  0  0  0  0  0
   -4.2167    1.5114    1.0589 C   0  0  0  0  0  0  0  0  0  0  0  0
   -5.1482    0.9332    0.9636 H   0  0  0  0  0  0  0  0  0  0  0  0
   -4.2317    2.7810    1.6602 C   0  0  0  0  0  0  0  0  0  0  0  0
   -5.1778    3.2015    2.0330 H   0  0  0  0  0  0  0  0  0  0  0  0
   -3.0392    3.5094    1.7958 C   0  0  0  0  0  0  0  0  0  0  0  0
   -3.0482    4.4999    2.2748 H   0  0  0  0  0  0  0  0  0  0  0  0
   -1.8287    2.9744    1.3297 C   0  0  0  0  0  0  0  0  0  0  0  0
   -0.8911    3.5386    1.4452 H   0  0  0  0  0  0  0  0  0  0  0  0
   -0.2209    1.4685   -1.7171 C   0  0  0  0  0  0  0  0  0  0  0  0
    0.8417    1.0060   -2.5247 C   0  0  0  0  0  0  0  0  0  0  0  0
    1.6287    0.3688   -2.0851 H   0  0  0  0  0  0  0  0  0  0  0  0
    0.8816    1.3496   -3.8826 C   0  0  0  0  0  0  0  0  0  0  0  0
    1.7096    0.9836   -4.5078 H   0  0  0  0  0  0  0  0  0  0  0  0
   -0.1271    2.1532   -4.4397 C   0  0  0  0  0  0  0  0  0  0  0  0
   -0.0913    2.4199   -5.5069 H   0  0  0  0  0  0  0  0  0  0  0  0
   -1.1799    2.6172   -3.6361 C   0  0  0  0  0  0  0  0  0  0  0  0
   -1.9706    3.2481   -4.0690 H   0  0  0  0  0  0  0  0  0  0  0  0
   -1.2304    2.2794   -2.2750 C   0  0  0  0  0  0  0  0  0  0  0  0
   -2.0557    2.6450   -1.6466 H   0  0  0  0  0  0  0  0  0  0  0  0
    1.1085    1.8347    0.8898 C   0  0  0  0  0  0  0  0  0  0  0  0
    1.4270    1.4682    2.2155 C   0  0  0  0  0  0  0  0  0  0  0  0
    0.8364    0.6846    2.7146 H   0  0  0  0  0  0  0  0  0  0  0  0
    2.4876    2.1099    2.8667 C   0  0  0  0  0  0  0  0  0  0  0  0
    2.7461    1.8179    3.8954 H   0  0  0  0  0  0  0  0  0  0  0  0
    3.2237    3.1114    2.2113 C   0  0  0  0  0  0  0  0  0  0  0  0
    4.0618    3.6041    2.7268 H   0  0  0  0  0  0  0  0  0  0  0  0
    2.8955    3.4810    0.8984 C   0  0  0  0  0  0  0  0  0  0  0  0
    3.4717    4.2632    0.3821 H   0  0  0  0  0  0  0  0  0  0  0  0
    1.8365    2.8462    0.2320 C   0  0  0  0  0  0  0  0  0  0  0  0
    1.5883    3.1282   -0.8016 H   0  0  0  0  0  0  0  0  0  0  0  0
   -0.2354   -0.7978    0.1146 C   0  0  0  0  0  3  0  0  0  0  0  0
   -0.7514   -1.1996   -0.7806 H   0  0  0  0  0  0  0  0  0  0  0  0
   -0.7362   -1.3671    1.3911 C   0  0  0  0  0  0  0  0  0  0  0  0
   -0.7905   -0.7353    2.4475 O   0  0  0  0  0  0  0  0  0  0  0  0
   -1.2062   -2.8304    1.3411 C   0  0  0  0  0  0  0  0  0  0  0  0
   -0.5631   -3.3953    0.6353 H   0  0  0  0  0  0  0  0  0  0  0  0
   -1.1200   -3.2625    2.3527 H   0  0  0  0  0  0  0  0  0  0  0  0
   -2.6515   -2.9847    0.8991 C   0  0  0  0  0  0  0  0  0  0  0  0
   -2.8683   -2.3662   -0.2998 O   0  0  0  0  0  0  0  0  0  0  0  0
   -3.5177   -3.5836    1.5003 O   0  0  0  0  0  0  0  0  0  0  0  0
   -4.2041   -2.4825   -0.8397 C   0  0  0  0  0  0  0  0  0  0  0  0
   -4.9234   -2.0508   -0.1108 H   0  0  0  0  0  0  0  0  0  0  0  0
   -4.4570   -3.5594   -0.9342 H   0  0  0  0  0  0  0  0  0  0  0  0
   -4.2303   -1.7658   -2.1742 C   0  0  0  0  0  0  0  0  0  0  0  0
   -5.2383   -1.8462   -2.6270 H   0  0  0  0  0  0  0  0  0  0  0  0
   -3.4988   -2.2102   -2.8777 H   0  0  0  0  0  0  0  0  0  0  0  0
   -3.9897   -0.6892   -2.0620 H   0  0  0  0  0  0  0  0  0  0  0  0
  1 35  1  0  0  0  0
  1  2  1  0  0  0  0
  1 24  1  0  0  0  0
  2 11  1  0  0  0  0
  3  2  2  0  0  0  0
  3  5  1  0  0  0  0
  4  3  1  0  0  0  0
  5  7  2  0  0  0  0
  6  5  1  0  0  0  0
  7  9  1  0  0  0  0
  7  8  1  0  0  0  0
  9 10  1  0  0  0  0
 11 12  1  0  0  0  0
 11  9  2  0  0  0  0
 13  1  1  0  0  0  0
 14 15  1  0  0  0  0
 14 13  2  0  0  0  0
 16 14  1  0  0  0  0
 17 16  1  0  0  0  0
 18 16  2  0  0  0  0
 18 20  1  0  0  0  0
 19 18  1  0  0  0  0
 20 22  2  0  0  0  0
 21 20  1  0  0  0  0
 22 13  1  0  0  0  0
 22 23  1  0  0  0  0
 24 25  1  0  0  0  0
 25 26  1  0  0  0  0
 25 27  2  0  0  0  0
 27 28  1  0  0  0  0
 29 30  1  0  0  0  0
 29 27  1  0  0  0  0
 31 29  2  0  0  0  0
 32 31  1  0  0  0  0
 33 24  2  0  0  0  0
 33 31  1  0  0  0  0
 34 33  1  0  0  0  0
 35 37  1  0  0  0  0
 36 35  1  0  0  0  0
 37 38  2  0  0  0  0
 39 37  1  0  0  0  0
 39 41  1  0  0  0  0
 40 39  1  0  0  0  0
 42 39  1  0  0  0  0
 42 44  2  0  0  0  0
 43 42  1  0  0  0  0
 45 43  1  0  0  0  0
 45 46  1  0  0  0  0
 47 45  1  0  0  0  0
 48 51  1  0  0  0  0
 48 45  1  0  0  0  0
 49 48  1  0  0  0  0
 50 48  1  0  0  0  0
M  END
