2
 OpenBabel05122313113D

 21 20  0  0  0  0  0  0  0  0999 V2000
    0.7364    2.7535    0.2029 N   0  0  0  0  0  0  0  0  0  0  0  0
    1.0730    1.4848   -0.1214 C   0  0  0  0  0  3  0  0  0  0  0  0
    1.9171    0.8616   -0.9804 C   0  0  0  0  0  3  0  0  0  0  0  0
    2.7808    1.1223   -2.1612 C   0  0  0  0  0  0  0  0  0  0  0  0
    1.3729    3.8717   -0.5013 C   0  0  0  0  0  0  0  0  0  0  0  0
    0.7864    4.1464   -1.8870 C   0  0  0  0  0  0  0  0  0  0  0  0
   -0.1923    3.0659    1.2853 C   0  0  0  0  0  0  0  0  0  0  0  0
   -1.4316    3.8509    0.8519 C   0  0  0  0  0  0  0  0  0  0  0  0
    3.1971    2.1501   -2.1684 H   0  0  0  0  0  0  0  0  0  0  0  0
    2.1861    0.9983   -3.0935 H   0  0  0  0  0  0  0  0  0  0  0  0
    3.6232    0.4056   -2.2313 H   0  0  0  0  0  0  0  0  0  0  0  0
    2.4611    3.6613   -0.5810 H   0  0  0  0  0  0  0  0  0  0  0  0
    1.2802    4.7724    0.1417 H   0  0  0  0  0  0  0  0  0  0  0  0
    0.8675    3.2509   -2.5339 H   0  0  0  0  0  0  0  0  0  0  0  0
    1.3284    4.9768   -2.3837 H   0  0  0  0  0  0  0  0  0  0  0  0
   -0.2851    4.4199   -1.8250 H   0  0  0  0  0  0  0  0  0  0  0  0
    0.3471    3.6310    2.0822 H   0  0  0  0  0  0  0  0  0  0  0  0
   -0.4922    2.0998    1.7316 H   0  0  0  0  0  0  0  0  0  0  0  0
   -1.1691    4.8502    0.4499 H   0  0  0  0  0  0  0  0  0  0  0  0
   -2.1031    4.0118    1.7195 H   0  0  0  0  0  0  0  0  0  0  0  0
   -1.9977    3.3048    0.0711 H   0  0  0  0  0  0  0  0  0  0  0  0
  1  7  1  0  0  0  0
  2  1  1  0  0  0  0
  3  2  2  0  0  0  0
  4  3  1  0  0  0  0
  5 13  1  0  0  0  0
  5  1  1  0  0  0  0
  6 16  1  0  0  0  0
  6  5  1  0  0  0  0
  7 18  1  0  0  0  0
  7 17  1  0  0  0  0
  8  7  1  0  0  0  0
  8 20  1  0  0  0  0
  9  4  1  0  0  0  0
 10  4  1  0  0  0  0
 11  4  1  0  0  0  0
 12  5  1  0  0  0  0
 14  6  1  0  0  0  0
 15  6  1  0  0  0  0
 19  8  1  0  0  0  0
 21  8  1  0  0  0  0
M  END
