1
 OpenBabel05122313113D

 13 12  0  0  0  0  0  0  0  0999 V2000
    2.2750    0.0318   -0.0465 C   0  0  0  0  0  3  0  0  0  0  0  0
    2.9233   -0.2446    1.0838 C   0  0  0  0  0  0  0  0  0  0  0  0
    2.0980    0.3599   -1.3867 C   0  0  0  0  0  3  0  0  0  0  0  0
    2.2014   -0.4176   -2.1654 H   0  0  0  0  0  0  0  0  0  0  0  0
    2.1813    1.4128   -1.7126 H   0  0  0  0  0  0  0  0  0  0  0  0
    4.4343   -0.2330    1.0978 C   0  0  0  0  0  0  0  0  0  0  0  0
    4.8087    0.5070    1.8378 H   0  0  0  0  0  0  0  0  0  0  0  0
    4.8603    0.0172    0.1082 H   0  0  0  0  0  0  0  0  0  0  0  0
    4.8261   -1.2259    1.4076 H   0  0  0  0  0  0  0  0  0  0  0  0
    2.2210   -0.5688    2.3747 C   0  0  0  0  0  0  0  0  0  0  0  0
    2.5414   -1.5634    2.7522 H   0  0  0  0  0  0  0  0  0  0  0  0
    1.1223   -0.5761    2.2484 H   0  0  0  0  0  0  0  0  0  0  0  0
    2.4805    0.1768    3.1567 H   0  0  0  0  0  0  0  0  0  0  0  0
  1  2  2  0  0  0  0
  2  6  1  0  0  0  0
  2 10  1  0  0  0  0
  3  1  1  0  0  0  0
  4  3  1  0  0  0  0
  5  3  1  0  0  0  0
  6  9  1  0  0  0  0
  6  7  1  0  0  0  0
  8  6  1  0  0  0  0
 10 11  1  0  0  0  0
 10 13  1  0  0  0  0
 12 10  1  0  0  0  0
M  END
