5
 OpenBabel05122313113D

 39 41  0  0  0  0  0  0  0  0999 V2000
   -3.3584    3.2555   -1.6374 S   0  0  0  0  0  0  0  0  0  0  0  0
    2.1121    0.3673    0.5899 N   0  0  0  0  0  0  0  0  0  0  0  0
    0.9060    1.9451   -0.3422 N   0  0  0  0  0  0  0  0  0  0  0  0
   -4.4603    1.1660   -0.0062 N   0  0  0  0  0  0  0  0  0  0  0  0
    0.8631    0.6562    0.1153 C   0  0  0  0  0  2  0  0  0  0  0  0
    2.9554    1.4697    0.4511 C   0  0  0  0  0  0  0  0  0  0  0  0
    4.3025    1.6731    0.7793 C   0  0  0  0  0  0  0  0  0  0  0  0
    4.9104    0.8716    1.2193 H   0  0  0  0  0  0  0  0  0  0  0  0
    4.8403    2.9397    0.5037 C   0  0  0  0  0  0  0  0  0  0  0  0
    5.8943    3.1387    0.7466 H   0  0  0  0  0  0  0  0  0  0  0  0
    4.0613    3.9617   -0.0819 C   0  0  0  0  0  0  0  0  0  0  0  0
    4.5198    4.9412   -0.2823 H   0  0  0  0  0  0  0  0  0  0  0  0
    2.7136    3.7558   -0.4162 C   0  0  0  0  0  0  0  0  0  0  0  0
    2.1106    4.5543   -0.8709 H   0  0  0  0  0  0  0  0  0  0  0  0
    2.1746    2.4919   -0.1412 C   0  0  0  0  0  0  0  0  0  0  0  0
    2.4966   -0.9063    1.1911 C   0  0  0  0  0  0  0  0  0  0  0  0
    1.5692   -1.5168    1.2061 H   0  0  0  0  0  0  0  0  0  0  0  0
    2.7836   -0.7261    2.2476 H   0  0  0  0  0  0  0  0  0  0  0  0
    3.6082   -1.6065    0.4387 C   0  0  0  0  0  0  0  0  0  0  0  0
    3.5142   -1.8005   -0.9538 C   0  0  0  0  0  0  0  0  0  0  0  0
    2.6275   -1.4359   -1.4989 H   0  0  0  0  0  0  0  0  0  0  0  0
    4.5380   -2.4652   -1.6427 C   0  0  0  0  0  0  0  0  0  0  0  0
    4.4524   -2.6129   -2.7300 H   0  0  0  0  0  0  0  0  0  0  0  0
    5.6633   -2.9456   -0.9520 C   0  0  0  0  0  0  0  0  0  0  0  0
    6.4658   -3.4663   -1.4965 H   0  0  0  0  0  0  0  0  0  0  0  0
    5.7603   -2.7592    0.4353 C   0  0  0  0  0  0  0  0  0  0  0  0
    6.6386   -3.1320    0.9840 H   0  0  0  0  0  0  0  0  0  0  0  0
    4.7374   -2.0896    1.1256 C   0  0  0  0  0  0  0  0  0  0  0  0
    4.8155   -1.9396    2.2148 H   0  0  0  0  0  0  0  0  0  0  0  0
   -0.2285    2.6467   -0.9248 C   0  0  0  0  0  0  0  0  0  0  0  0
   -0.8020    1.9042   -1.5162 H   0  0  0  0  0  0  0  0  0  0  0  0
    0.1706    3.3957   -1.6398 H   0  0  0  0  0  0  0  0  0  0  0  0
   -1.1162    3.3050    0.1350 C   0  0  0  0  0  0  0  0  0  0  0  0
   -1.5233    2.5175    0.8058 H   0  0  0  0  0  0  0  0  0  0  0  0
   -0.5026    3.9715    0.7796 H   0  0  0  0  0  0  0  0  0  0  0  0
   -2.2447    4.1430   -0.4488 C   0  0  0  0  0  0  0  0  0  0  0  0
   -1.8670    4.9745   -1.0815 H   0  0  0  0  0  0  0  0  0  0  0  0
   -2.8800    4.5825    0.3441 H   0  0  0  0  0  0  0  0  0  0  0  0
   -3.9865    2.0384   -0.6419 C   0  0  0  0  0  0  0  0  0  0  0  0
  1 39  1  0  0  0  0
  1 36  1  0  0  0  0
  2 16  1  0  0  0  0
  3 15  1  0  0  0  0
  3  5  1  0  0  0  0
  5  2  1  0  0  0  0
  6  2  1  0  0  0  0
  6  7  1  0  0  0  0
  7  8  1  0  0  0  0
  9 10  1  0  0  0  0
  9  7  2  0  0  0  0
 11  9  1  0  0  0  0
 12 11  1  0  0  0  0
 13 15  1  0  0  0  0
 13 11  2  0  0  0  0
 14 13  1  0  0  0  0
 15  6  2  0  0  0  0
 16 17  1  0  0  0  0
 16 18  1  0  0  0  0
 19 28  1  0  0  0  0
 19 16  1  0  0  0  0
 20 19  2  0  0  0  0
 21 20  1  0  0  0  0
 22 20  1  0  0  0  0
 22 24  2  0  0  0  0
 23 22  1  0  0  0  0
 24 26  1  0  0  0  0
 25 24  1  0  0  0  0
 26 27  1  0  0  0  0
 26 28  2  0  0  0  0
 28 29  1  0  0  0  0
 30  3  1  0  0  0  0
 30 33  1  0  0  0  0
 31 30  1  0  0  0  0
 32 30  1  0  0  0  0
 33 35  1  0  0  0  0
 33 34  1  0  0  0  0
 36 33  1  0  0  0  0
 36 38  1  0  0  0  0
 37 36  1  0  0  0  0
 39  4  3  0  0  0  0
M  END
