4
 OpenBabel05122313113D

 37 39  0  0  0  0  0  0  0  0999 V2000
    3.9774   -1.6904   -0.8729 I   0  0  0  0  0  0  0  0  0  0  0  0
   -2.3133   -0.6405    0.5565 N   0  0  0  0  0  0  0  0  0  0  0  0
   -0.7970   -1.9277   -0.3711 N   0  0  0  0  0  0  0  0  0  0  0  0
   -1.0172   -0.6731    0.1262 C   0  0  0  0  0  2  0  0  0  0  0  0
   -2.9279   -1.8758    0.3453 C   0  0  0  0  0  0  0  0  0  0  0  0
   -4.2232   -2.3424    0.6071 C   0  0  0  0  0  0  0  0  0  0  0  0
   -4.9876   -1.6887    1.0474 H   0  0  0  0  0  0  0  0  0  0  0  0
   -4.5005   -3.6749    0.2646 C   0  0  0  0  0  0  0  0  0  0  0  0
   -5.5061   -4.0782    0.4537 H   0  0  0  0  0  0  0  0  0  0  0  0
   -3.5213   -4.5072   -0.3211 C   0  0  0  0  0  0  0  0  0  0  0  0
   -3.7791   -5.5457   -0.5758 H   0  0  0  0  0  0  0  0  0  0  0  0
   -2.2254   -4.0386   -0.5879 C   0  0  0  0  0  0  0  0  0  0  0  0
   -1.4647   -4.6882   -1.0432 H   0  0  0  0  0  0  0  0  0  0  0  0
   -1.9462   -2.7087   -0.2455 C   0  0  0  0  0  0  0  0  0  0  0  0
   -2.9421    0.5120    1.1947 C   0  0  0  0  0  0  0  0  0  0  0  0
   -2.1515    1.2907    1.2401 H   0  0  0  0  0  0  0  0  0  0  0  0
   -3.1934    0.2439    2.2417 H   0  0  0  0  0  0  0  0  0  0  0  0
   -4.1662    1.0094    0.4558 C   0  0  0  0  0  0  0  0  0  0  0  0
   -5.3640    1.2563    1.1521 C   0  0  0  0  0  0  0  0  0  0  0  0
   -5.4100    1.0673    2.2370 H   0  0  0  0  0  0  0  0  0  0  0  0
   -6.4957    1.7395    0.4763 C   0  0  0  0  0  0  0  0  0  0  0  0
   -7.4267    1.9282    1.0323 H   0  0  0  0  0  0  0  0  0  0  0  0
   -6.4391    1.9740   -0.9059 C   0  0  0  0  0  0  0  0  0  0  0  0
   -7.3263    2.3483   -1.4392 H   0  0  0  0  0  0  0  0  0  0  0  0
   -5.2459    1.7287   -1.6060 C   0  0  0  0  0  0  0  0  0  0  0  0
   -5.1928    1.9150   -2.6895 H   0  0  0  0  0  0  0  0  0  0  0  0
   -4.1138    1.2507   -0.9315 C   0  0  0  0  0  0  0  0  0  0  0  0
   -3.1757    1.0709   -1.4828 H   0  0  0  0  0  0  0  0  0  0  0  0
    0.4862   -2.3808   -0.8896 C   0  0  0  0  0  0  0  0  0  0  0  0
    0.9898   -1.4909   -1.3202 H   0  0  0  0  0  0  0  0  0  0  0  0
    0.2922   -3.0859   -1.7242 H   0  0  0  0  0  0  0  0  0  0  0  0
    1.3580   -3.0161    0.1971 C   0  0  0  0  0  0  0  0  0  0  0  0
    0.8651   -3.9394    0.5791 H   0  0  0  0  0  0  0  0  0  0  0  0
    1.4229   -2.3157    1.0577 H   0  0  0  0  0  0  0  0  0  0  0  0
    2.7440   -3.4082   -0.2762 C   0  0  0  0  0  0  0  0  0  0  0  0
    2.7343   -4.0573   -1.1726 H   0  0  0  0  0  0  0  0  0  0  0  0
    3.3300   -3.8970    0.5220 H   0  0  0  0  0  0  0  0  0  0  0  0
  1 35  1  0  0  0  0
  2 15  1  0  0  0  0
  3 14  1  0  0  0  0
  3  4  1  0  0  0  0
  4  2  1  0  0  0  0
  5  2  1  0  0  0  0
  5  6  1  0  0  0  0
  6  7  1  0  0  0  0
  8  9  1  0  0  0  0
  8  6  2  0  0  0  0
 10  8  1  0  0  0  0
 11 10  1  0  0  0  0
 12 10  2  0  0  0  0
 12 14  1  0  0  0  0
 13 12  1  0  0  0  0
 14  5  2  0  0  0  0
 15 16  1  0  0  0  0
 15 17  1  0  0  0  0
 18 19  1  0  0  0  0
 18 15  1  0  0  0  0
 19 20  1  0  0  0  0
 21 22  1  0  0  0  0
 21 19  2  0  0  0  0
 23 21  1  0  0  0  0
 24 23  1  0  0  0  0
 25 27  1  0  0  0  0
 25 23  2  0  0  0  0
 26 25  1  0  0  0  0
 27 18  2  0  0  0  0
 28 27  1  0  0  0  0
 29  3  1  0  0  0  0
 29 32  1  0  0  0  0
 30 29  1  0  0  0  0
 31 29  1  0  0  0  0
 32 33  1  0  0  0  0
 32 34  1  0  0  0  0
 35 32  1  0  0  0  0
 35 37  1  0  0  0  0
 36 35  1  0  0  0  0
M  END
