10
 OpenBabel05122313113D

 14 13  0  0  0  0  0  0  0  0999 V2000
    1.2508    0.1275    3.1702 F   0  0  0  0  0  0  0  0  0  0  0  0
    2.0631    1.9521    2.2759 F   0  0  0  0  0  0  0  0  0  0  0  0
    3.3678    0.6163    3.4078 F   0  0  0  0  0  0  0  0  0  0  0  0
    3.3629    0.6228   -3.4090 F   0  0  0  0  0  0  0  0  0  0  0  0
    2.0547    1.9534   -2.2750 F   0  0  0  0  0  0  0  0  0  0  0  0
    1.2473    0.1279   -3.1717 F   0  0  0  0  0  0  0  0  0  0  0  0
    3.2105   -1.2697    1.4497 O   0  0  0  0  0  0  0  0  0  0  0  0
    3.2085   -1.2678   -1.4541 O   0  0  0  0  0  0  0  0  0  0  0  0
    2.6514   -0.1887    1.2753 C   0  0  0  0  0  0  0  0  0  0  0  0
    2.1553    0.3548   -0.0004 C   0  0  0  0  0  3  0  0  0  0  0  0
    2.6492   -0.1872   -1.2775 C   0  0  0  0  0  0  0  0  0  0  0  0
    2.3400    0.6593    2.5503 C   0  0  0  0  0  0  0  0  0  0  0  0
    2.3351    0.6618   -2.5512 C   0  0  0  0  0  0  0  0  0  0  0  0
    1.9255    1.4309    0.0004 H   0  0  0  0  0  0  0  0  0  0  0  0
  2 12  1  0  0  0  0
  4 13  1  0  0  0  0
  6 13  1  0  0  0  0
  8 11  2  0  0  0  0
  9  7  2  0  0  0  0
  9 12  1  0  0  0  0
 10 14  1  0  0  0  0
 10  9  1  0  0  0  0
 11 10  1  0  0  0  0
 12  1  1  0  0  0  0
 12  3  1  0  0  0  0
 13  5  1  0  0  0  0
 13 11  1  0  0  0  0
M  END
