8
 OpenBabel05122313113D

 24 25  0  0  1  0  0  0  0  0999 V2000
    3.5337   -0.5912    0.9344 O   0  0  0  0  0  0  0  0  0  0  0  0
    2.6976   -2.2672   -0.3292 O   0  0  0  0  0  0  0  0  0  0  0  0
    2.6168   -1.1352    0.0847 C   0  0  0  0  0  0  0  0  0  0  0  0
    1.4961   -0.1019   -0.1962 C   0  0  2  0  0  0  0  0  0  0  0  0
    2.2183    1.2331    0.1368 C   0  0  1  0  0  0  0  0  0  0  0  0
    3.1852    0.7711    1.2455 C   0  0  0  0  0  0  0  0  0  0  0  0
    0.3936   -0.4029    0.8307 C   0  0  0  0  0  3  0  0  0  0  0  0
   -0.3854   -1.6085    0.6900 C   0  0  0  0  0  3  0  0  0  0  0  0
   -0.8590   -1.8376   -0.6308 C   0  0  0  0  0  3  0  0  0  0  0  0
   -0.4860   -0.8290   -1.5816 C   0  0  0  0  0  3  0  0  0  0  0  0
    0.9234   -0.2741   -1.6151 C   0  0  0  0  0  0  0  0  0  0  0  0
    2.9723    1.8558   -1.0409 C   0  0  0  0  0  0  0  0  0  0  0  0
    1.4976    1.9716    0.5419 H   0  0  0  0  0  0  0  0  0  0  0  0
    4.1232    1.3594    1.2787 H   0  0  0  0  0  0  0  0  0  0  0  0
    2.7221    0.7990    2.2555 H   0  0  0  0  0  0  0  0  0  0  0  0
    0.6204   -0.0869    1.8623 H   0  0  0  0  0  0  0  0  0  0  0  0
   -0.6770   -2.2494    1.5349 H   0  0  0  0  0  0  0  0  0  0  0  0
   -1.5559   -2.6571   -0.8622 H   0  0  0  0  0  0  0  0  0  0  0  0
   -1.0009   -0.8535   -2.5561 H   0  0  0  0  0  0  0  0  0  0  0  0
    1.5697   -0.9613   -2.2038 H   0  0  0  0  0  0  0  0  0  0  0  0
    0.9167    0.6943   -2.1505 H   0  0  0  0  0  0  0  0  0  0  0  0
    2.2822    2.2093   -1.8308 H   0  0  0  0  0  0  0  0  0  0  0  0
    3.5568    2.7340   -0.7012 H   0  0  0  0  0  0  0  0  0  0  0  0
    3.6804    1.1354   -1.5003 H   0  0  0  0  0  0  0  0  0  0  0  0
  1  6  1  0  0  0  0
  2  3  2  0  0  0  0
  3  1  1  0  0  0  0
  4  3  1  1  0  0  0
  4  5  1  0  0  0  0
  4  7  1  0  0  0  0
  5 13  1  1  0  0  0
  5  6  1  0  0  0  0
  6 14  1  0  0  0  0
  6 15  1  0  0  0  0
  7 16  1  0  0  0  0
  8  7  1  0  0  0  0
  8 17  1  0  0  0  0
  9  8  1  0  0  0  0
 10  9  1  0  0  0  0
 11 10  1  0  0  0  0
 11  4  1  0  0  0  0
 12 23  1  0  0  0  0
 12  5  1  0  0  0  0
 18  9  1  0  0  0  0
 19 10  1  0  0  0  0
 20 11  1  0  0  0  0
 21 11  1  0  0  0  0
 22 12  1  0  0  0  0
 24 12  1  0  0  0  0
M  END
