4
 OpenBabel05122313113D

 28 29  0  0  1  0  0  0  0  0999 V2000
    3.8647    0.6587    0.7004 O   0  0  0  0  0  0  0  0  0  0  0  0
    2.3764   -1.0762   -0.3719 C   0  0  2  0  0  0  0  0  0  0  0  0
    1.3843   -0.9210   -1.5351 C   0  0  0  0  0  3  0  0  0  0  0  0
    0.9384    0.4367   -1.5086 C   0  0  0  0  0  3  0  0  0  0  0  0
    1.6795    1.0796   -0.3193 C   0  0  1  0  0  0  0  0  0  0  0  0
    1.0304    0.3761    0.8848 C   0  0  0  0  0  0  0  0  0  0  0  0
    1.4613   -0.9429    0.8565 C   0  0  0  0  0  0  0  0  0  0  0  0
    3.0478    0.3424   -0.3948 C   0  0  1  0  0  0  0  0  0  0  0  0
    5.2987    0.5369    0.5598 C   0  0  0  0  0  0  0  0  0  0  0  0
    5.7032   -0.8669    0.0837 C   0  0  0  0  0  0  0  0  0  0  0  0
    5.8282    1.6148   -0.4011 C   0  0  0  0  0  0  0  0  0  0  0  0
    5.8200    0.7877    1.9780 C   0  0  0  0  0  0  0  0  0  0  0  0
    3.0303   -1.9638   -0.3992 H   0  0  0  0  0  0  0  0  0  0  0  0
    1.4282   -1.5421   -2.4399 H   0  0  0  0  0  0  0  0  0  0  0  0
    0.6454    0.9889   -2.4097 H   0  0  0  0  0  0  0  0  0  0  0  0
    1.7161    2.1825   -0.2782 H   0  0  0  0  0  0  0  0  0  0  0  0
    0.4871    0.8760    1.6960 H   0  0  0  0  0  0  0  0  0  0  0  0
    1.3493   -1.6915    1.6504 H   0  0  0  0  0  0  0  0  0  0  0  0
    3.5463    0.5342   -1.3722 H   0  0  0  0  0  0  0  0  0  0  0  0
    5.3417   -1.0725   -0.9436 H   0  0  0  0  0  0  0  0  0  0  0  0
    6.8070   -0.9671    0.0741 H   0  0  0  0  0  0  0  0  0  0  0  0
    5.2909   -1.6403    0.7617 H   0  0  0  0  0  0  0  0  0  0  0  0
    5.5075    2.6190   -0.0600 H   0  0  0  0  0  0  0  0  0  0  0  0
    5.4569    1.4635   -1.4345 H   0  0  0  0  0  0  0  0  0  0  0  0
    6.9356    1.5945   -0.4416 H   0  0  0  0  0  0  0  0  0  0  0  0
    5.4184    0.0233    2.6718 H   0  0  0  0  0  0  0  0  0  0  0  0
    6.9267    0.7511    2.0073 H   0  0  0  0  0  0  0  0  0  0  0  0
    5.4870    1.7826    2.3336 H   0  0  0  0  0  0  0  0  0  0  0  0
  2 13  1  6  0  0  0
  2  7  1  0  0  0  0
  3  4  1  0  0  0  0
  3  2  1  0  0  0  0
  4  5  1  0  0  0  0
  5 16  1  1  0  0  0
  5  6  1  0  0  0  0
  6 17  1  0  0  0  0
  7  6  2  0  0  0  0
  7 18  1  0  0  0  0
  8 19  1  6  0  0  0
  8  2  1  0  0  0  0
  8  5  1  0  0  0  0
  8  1  1  0  0  0  0
  9  1  1  0  0  0  0
  9 12  1  0  0  0  0
 10  9  1  0  0  0  0
 10 22  1  0  0  0  0
 11 23  1  0  0  0  0
 11  9  1  0  0  0  0
 12 27  1  0  0  0  0
 12 28  1  0  0  0  0
 12 26  1  0  0  0  0
 14  3  1  0  0  0  0
 15  4  1  0  0  0  0
 20 10  1  0  0  0  0
 21 10  1  0  0  0  0
 24 11  1  0  0  0  0
 25 11  1  0  0  0  0
M  END
