3
 OpenBabel05122313113D

 51 52  0  0  1  0  0  0  0  0999 V2000
   -0.5214    2.3106    0.8252 N   0  0  0  0  0  0  0  0  0  0  0  0
   -1.1575    0.0806    0.0112 N   0  0  0  0  0  2  0  0  0  0  0  0
   -0.4177    1.1216    0.2430 C   0  0  0  0  0  2  0  0  0  0  0  0
   -1.7078    2.8132    1.5108 C   0  0  0  0  0  0  0  0  0  0  0  0
   -2.5473    2.1106    1.3540 H   0  0  0  0  0  0  0  0  0  0  0  0
   -1.5228    2.9056    2.6029 H   0  0  0  0  0  0  0  0  0  0  0  0
   -2.0020    3.8100    1.1212 H   0  0  0  0  0  0  0  0  0  0  0  0
    0.7543    3.0387    0.9185 C   0  0  0  0  0  0  0  0  0  0  0  0
    0.5706    4.0002    1.4375 H   0  0  0  0  0  0  0  0  0  0  0  0
    1.0999    3.2684   -0.1110 H   0  0  0  0  0  0  0  0  0  0  0  0
    2.1291    0.8483    1.1131 C   0  0  0  0  0  0  0  0  0  0  0  0
    1.6805   -0.3994    1.6800 C   0  0  1  0  0  3  0  0  0  0  0  0
    2.2657   -1.4672    0.9292 C   0  0  0  0  0  0  0  0  0  0  0  0
    3.0634   -0.8880   -0.1150 C   0  0  0  0  0  0  0  0  0  0  0  0
    3.0017    0.5410    0.0165 C   0  0  0  0  0  0  0  0  0  0  0  0
    1.8312    2.2238    1.6684 C   0  0  0  0  0  0  0  0  0  0  0  0
    1.5247    2.1260    2.7305 H   0  0  0  0  0  0  0  0  0  0  0  0
    2.7642    2.8261    1.6708 H   0  0  0  0  0  0  0  0  0  0  0  0
    0.8293   -0.5275    2.9071 C   0  0  0  0  0  0  0  0  0  0  0  0
    1.4147   -0.2773    3.8184 H   0  0  0  0  0  0  0  0  0  0  0  0
   -0.0474    0.1507    2.8854 H   0  0  0  0  0  0  0  0  0  0  0  0
    0.4506   -1.5583    3.0339 H   0  0  0  0  0  0  0  0  0  0  0  0
    2.1457   -2.9337    1.2047 C   0  0  0  0  0  0  0  0  0  0  0  0
    3.0681   -3.3109    1.6967 H   0  0  0  0  0  0  0  0  0  0  0  0
    1.2914   -3.1598    1.8710 H   0  0  0  0  0  0  0  0  0  0  0  0
    1.9916   -3.5027    0.2678 H   0  0  0  0  0  0  0  0  0  0  0  0
    3.8234   -1.6658   -1.1459 C   0  0  0  0  0  0  0  0  0  0  0  0
    4.7086   -2.1701   -0.7020 H   0  0  0  0  0  0  0  0  0  0  0  0
    3.1787   -2.4489   -1.5946 H   0  0  0  0  0  0  0  0  0  0  0  0
    4.1814   -1.0140   -1.9649 H   0  0  0  0  0  0  0  0  0  0  0  0
    3.8021    1.5319   -0.7725 C   0  0  0  0  0  0  0  0  0  0  0  0
    4.8178    1.6407   -0.3339 H   0  0  0  0  0  0  0  0  0  0  0  0
    3.9159    1.2175   -1.8271 H   0  0  0  0  0  0  0  0  0  0  0  0
    3.3280    2.5312   -0.7868 H   0  0  0  0  0  0  0  0  0  0  0  0
   -2.5388   -0.1901   -0.0309 C   0  0  0  0  0  0  0  0  0  0  0  0
   -3.3639    0.6032   -0.8770 C   0  0  0  0  0  0  0  0  0  0  0  0
   -4.7364    0.3000   -0.9361 C   0  0  0  0  0  0  0  0  0  0  0  0
   -5.3840    0.9051   -1.5901 H   0  0  0  0  0  0  0  0  0  0  0  0
   -5.2772   -0.7652   -0.2036 C   0  0  0  0  0  0  0  0  0  0  0  0
   -6.3526   -0.9891   -0.2674 H   0  0  0  0  0  0  0  0  0  0  0  0
   -4.4384   -1.5617    0.5877 C   0  0  0  0  0  0  0  0  0  0  0  0
   -4.8538   -2.4167    1.1439 H   0  0  0  0  0  0  0  0  0  0  0  0
   -3.0598   -1.3003    0.6819 C   0  0  0  0  0  0  0  0  0  0  0  0
   -2.7696    1.6938   -1.7307 C   0  0  0  0  0  0  0  0  0  0  0  0
   -1.8468    1.3478   -2.2406 H   0  0  0  0  0  0  0  0  0  0  0  0
   -3.4925    2.0305   -2.4977 H   0  0  0  0  0  0  0  0  0  0  0  0
   -2.4752    2.5871   -1.1402 H   0  0  0  0  0  0  0  0  0  0  0  0
   -2.1509   -2.1674    1.5090 C   0  0  0  0  0  0  0  0  0  0  0  0
   -1.2778   -2.4948    0.9069 H   0  0  0  0  0  0  0  0  0  0  0  0
   -1.7569   -1.6177    2.3885 H   0  0  0  0  0  0  0  0  0  0  0  0
   -2.6852   -3.0626    1.8800 H   0  0  0  0  0  0  0  0  0  0  0  0
  1  8  1  0  0  0  0
  1  4  1  0  0  0  0
  2  3  1  0  0  0  0
  3  1  1  0  0  0  0
  4  6  1  0  0  0  0
  5  4  1  0  0  0  0
  7  4  1  0  0  0  0
  8  9  1  0  0  0  0
  8 16  1  0  0  0  0
 10  8  1  0  0  0  0
 11 16  1  0  0  0  0
 11 12  1  0  0  0  0
 12 19  1  1  0  0  0
 13 23  1  0  0  0  0
 13 12  1  0  0  0  0
 14 15  1  0  0  0  0
 14 13  2  0  0  0  0
 15 11  2  0  0  0  0
 16 18  1  0  0  0  0
 16 17  1  0  0  0  0
 19 22  1  0  0  0  0
 19 20  1  0  0  0  0
 21 19  1  0  0  0  0
 23 24  1  0  0  0  0
 23 25  1  0  0  0  0
 26 23  1  0  0  0  0
 27 28  1  0  0  0  0
 27 14  1  0  0  0  0
 29 27  1  0  0  0  0
 30 27  1  0  0  0  0
 31 32  1  0  0  0  0
 31 15  1  0  0  0  0
 33 31  1  0  0  0  0
 34 31  1  0  0  0  0
 35  2  1  0  0  0  0
 35 43  1  0  0  0  0
 36 35  2  0  0  0  0
 37 36  1  0  0  0  0
 37 39  2  0  0  0  0
 38 37  1  0  0  0  0
 39 41  1  0  0  0  0
 40 39  1  0  0  0  0
 41 43  2  0  0  0  0
 41 42  1  0  0  0  0
 43 48  1  0  0  0  0
 44 47  1  0  0  0  0
 44 36  1  0  0  0  0
 45 44  1  0  0  0  0
 46 44  1  0  0  0  0
 48 51  1  0  0  0  0
 48 50  1  0  0  0  0
 49 48  1  0  0  0  0
M  END
