1
 OpenBabel05122313113D

 80110  0  0  1  0  0  0  0  0999 V2000
    0.8770    0.0012    1.3232 C   0  0  2  0  0  3  0  0  0  0  0  0
    0.9412    1.1736    0.4780 C   0  0  1  0  0  3  0  0  0  0  0  0
    0.9434    0.7069   -0.9009 C   0  0  0  0  0  0  0  0  0  0  0  0
    0.9431   -0.7091   -0.8994 C   0  0  0  0  0  0  0  0  0  0  0  0
    0.9410   -1.1730    0.4804 C   0  0  2  0  0  3  0  0  0  0  0  0
    0.3588    0.0026    2.7481 C   0  0  1  0  0  0  0  0  0  0  0  0
    0.4435    2.5421    0.9013 C   0  0  2  0  0  0  0  0  0  0  0  0
    0.5509    1.5586   -2.0900 C   0  0  2  0  0  0  0  0  0  0  0  0
    0.5506   -1.5632   -2.0868 C   0  0  2  0  0  0  0  0  0  0  0  0
    0.4431   -2.5406    0.9065 C   0  0  2  0  0  0  0  0  0  0  0  0
   -0.6212    1.1931    2.8516 C   0  0  0  0  0  0  0  0  0  0  0  0
   -0.5847    2.3129    2.0346 C   0  0  0  0  0  0  0  0  0  0  0  0
   -0.4910    3.0436   -0.2263 C   0  0  0  0  0  0  0  0  0  0  0  0
   -0.4432    2.6111   -1.5450 C   0  0  0  0  0  0  0  0  0  0  0  0
   -0.3947    0.6898   -2.9482 C   0  0  0  0  0  0  0  0  0  0  0  0
   -0.3949   -0.6960   -2.9468 C   0  0  0  0  0  0  0  0  0  0  0  0
   -0.4436   -2.6145   -1.5396 C   0  0  0  0  0  0  0  0  0  0  0  0
   -0.4914   -3.0443   -0.2201 C   0  0  0  0  0  0  0  0  0  0  0  0
   -0.5850   -2.3090    2.0393 C   0  0  0  0  0  0  0  0  0  0  0  0
   -0.6213   -1.1875    2.8540 C   0  0  0  0  0  0  0  0  0  0  0  0
   -1.8827    0.7310    3.3778 C   0  0  0  0  0  0  0  0  0  0  0  0
   -1.8137    3.0020    1.7229 C   0  0  0  0  0  0  0  0  0  0  0  0
   -1.7570    3.4485    0.3394 C   0  0  0  0  0  0  0  0  0  0  0  0
   -1.6554    2.5771   -2.3288 C   0  0  0  0  0  0  0  0  0  0  0  0
   -1.6252    1.4024   -3.1867 C   0  0  0  0  0  0  0  0  0  0  0  0
   -1.6255   -1.4089   -3.1838 C   0  0  0  0  0  0  0  0  0  0  0  0
   -1.6558   -2.5819   -2.3236 C   0  0  0  0  0  0  0  0  0  0  0  0
   -1.7575   -3.4478    0.3464 C   0  0  0  0  0  0  0  0  0  0  0  0
   -1.8141   -2.9985    1.7290 C   0  0  0  0  0  0  0  0  0  0  0  0
   -1.8828   -0.7242    3.3793 C   0  0  0  0  0  0  0  0  0  0  0  0
   -3.0797    1.4347    3.1368 C   0  0  0  0  0  0  0  0  0  0  0  0
   -3.0439    2.6027    2.2850 C   0  0  0  0  0  0  0  0  0  0  0  0
   -2.9349    3.4826   -0.4350 C   0  0  0  0  0  0  0  0  0  0  0  0
   -2.8826    3.0349   -1.8085 C   0  0  0  0  0  0  0  0  0  0  0  0
   -2.8209    0.7196   -3.4908 C   0  0  0  0  0  0  0  0  0  0  0  0
   -2.8211   -0.7266   -3.4893 C   0  0  0  0  0  0  0  0  0  0  0  0
   -2.8831   -3.0384   -1.8023 C   0  0  0  0  0  0  0  0  0  0  0  0
   -2.9354   -3.4833   -0.4279 C   0  0  0  0  0  0  0  0  0  0  0  0
   -3.0443   -2.5979    2.2903 C   0  0  0  0  0  0  0  0  0  0  0  0
   -3.0799   -1.4281    3.1397 C   0  0  0  0  0  0  0  0  0  0  0  0
   -4.3117   -0.7002    2.8615 C   0  0  0  0  0  0  0  0  0  0  0  0
   -4.3116    0.7064    2.8601 C   0  0  0  0  0  0  0  0  0  0  0  0
   -4.2547    2.6093    1.4742 C   0  0  0  0  0  0  0  0  0  0  0  0
   -4.2009    3.0419    0.1375 C   0  0  0  0  0  0  0  0  0  0  0  0
   -4.1150    2.3128   -2.0997 C   0  0  0  0  0  0  0  0  0  0  0  0
   -4.0845    1.1746   -2.9252 C   0  0  0  0  0  0  0  0  0  0  0  0
   -4.0847   -1.1802   -2.9228 C   0  0  0  0  0  0  0  0  0  0  0  0
   -4.1153   -2.3168   -2.0950 C   0  0  0  0  0  0  0  0  0  0  0  0
   -4.2014   -3.0413    0.1437 C   0  0  0  0  0  0  0  0  0  0  0  0
   -4.2551   -2.6059    1.4795 C   0  0  0  0  0  0  0  0  0  0  0  0
   -5.0399   -1.4302    1.8324 C   0  0  0  0  0  0  0  0  0  0  0  0
   -5.0397    1.4344    1.8295 C   0  0  0  0  0  0  0  0  0  0  0  0
   -4.9315    2.3163   -0.8934 C   0  0  0  0  0  0  0  0  0  0  0  0
   -4.8682   -0.0024   -2.5738 C   0  0  0  0  0  0  0  0  0  0  0  0
   -4.9318   -2.3177   -0.8886 C   0  0  0  0  0  0  0  0  0  0  0  0
   -5.7449   -0.7272    0.8344 C   0  0  0  0  0  0  0  0  0  0  0  0
   -5.7448    0.7294    0.8330 C   0  0  0  0  0  0  0  0  0  0  0  0
   -5.6903    1.1782   -0.5517 C   0  0  0  0  0  0  0  0  0  0  0  0
   -5.6577   -0.0012   -1.4061 C   0  0  0  0  0  0  0  0  0  0  0  0
   -5.6905   -1.1788   -0.5493 C   0  0  0  0  0  0  0  0  0  0  0  0
    1.4189    0.0038    3.8657 C   0  0  0  0  0  0  0  0  0  0  0  0
    0.9185    0.0052    4.8532 H   0  0  0  0  0  0  0  0  0  0  0  0
    2.0588    0.9042    3.7983 H   0  0  0  0  0  0  0  0  0  0  0  0
    2.0584   -0.8970    3.8007 H   0  0  0  0  0  0  0  0  0  0  0  0
    1.5495    3.5443    1.2857 C   0  0  0  0  0  0  0  0  0  0  0  0
    1.1001    4.5118    1.5818 H   0  0  0  0  0  0  0  0  0  0  0  0
    2.2433    3.7025    0.4384 H   0  0  0  0  0  0  0  0  0  0  0  0
    2.1418    3.1500    2.1342 H   0  0  0  0  0  0  0  0  0  0  0  0
    1.7057    2.1659   -2.9096 C   0  0  0  0  0  0  0  0  0  0  0  0
    1.2920    2.7339   -3.7653 H   0  0  0  0  0  0  0  0  0  0  0  0
    2.3688    1.3672   -3.2939 H   0  0  0  0  0  0  0  0  0  0  0  0
    2.3189    2.8398   -2.2835 H   0  0  0  0  0  0  0  0  0  0  0  0
    1.7050   -2.1725   -2.9053 C   0  0  0  0  0  0  0  0  0  0  0  0
    1.2910   -2.7418   -3.7599 H   0  0  0  0  0  0  0  0  0  0  0  0
    2.3180   -2.8457   -2.2781 H   0  0  0  0  0  0  0  0  0  0  0  0
    2.3686   -1.3749   -3.2911 H   0  0  0  0  0  0  0  0  0  0  0  0
    1.5494   -3.5418    1.2926 C   0  0  0  0  0  0  0  0  0  0  0  0
    2.2433   -3.7012    0.4457 H   0  0  0  0  0  0  0  0  0  0  0  0
    1.1004   -4.5090    1.5904 H   0  0  0  0  0  0  0  0  0  0  0  0
    2.1415   -3.1458    2.1405 H   0  0  0  0  0  0  0  0  0  0  0  0
  1  6  1  0  0  0  0
  2  3  1  6  0  0  0
  2  7  1  0  0  0  0
  2  1  1  0  0  0  0
  3  4  2  0  0  0  0
  5  4  1  6  0  0  0
  5 10  1  0  0  0  0
  5  1  1  0  0  0  0
  6 11  1  0  0  0  0
  6 20  1  0  0  0  0
  6 61  1  0  0  0  0
  7 65  1  1  0  0  0
  7 12  1  0  0  0  0
  8 69  1  6  0  0  0
  8 14  1  0  0  0  0
  8  3  1  0  0  0  0
  9 73  1  6  0  0  0
  9 17  1  0  0  0  0
  9  4  1  0  0  0  0
 10 77  1  1  0  0  0
 10 19  1  0  0  0  0
 11 21  1  0  0  0  0
 12 11  2  0  0  0  0
 13 23  1  0  0  0  0
 13  7  1  0  0  0  0
 14 13  2  0  0  0  0
 15 16  2  0  0  0  0
 15  8  1  0  0  0  0
 16  9  1  0  0  0  0
 17 18  2  0  0  0  0
 18 28  1  0  0  0  0
 18 10  1  0  0  0  0
 19 20  2  0  0  0  0
 20 30  1  0  0  0  0
 21 30  1  0  0  0  0
 22 12  1  0  0  0  0
 22 32  1  0  0  0  0
 23 22  2  0  0  0  0
 24 34  1  0  0  0  0
 24 14  1  0  0  0  0
 25 15  1  0  0  0  0
 25 24  2  0  0  0  0
 26 16  1  0  0  0  0
 26 27  2  0  0  0  0
 27 37  1  0  0  0  0
 27 17  1  0  0  0  0
 28 29  2  0  0  0  0
 29 19  1  0  0  0  0
 29 39  1  0  0  0  0
 31 21  2  0  0  0  0
 32 31  1  0  0  0  0
 33 44  2  0  0  0  0
 33 23  1  0  0  0  0
 34 33  1  0  0  0  0
 35 36  2  0  0  0  0
 35 25  1  0  0  0  0
 35 46  1  0  0  0  0
 36 26  1  0  0  0  0
 36 47  1  0  0  0  0
 37 38  2  0  0  0  0
 38 49  1  0  0  0  0
 38 28  1  0  0  0  0
 39 40  1  0  0  0  0
 40 30  2  0  0  0  0
 41 40  1  0  0  0  0
 42 41  1  0  0  0  0
 42 31  1  0  0  0  0
 43 52  1  0  0  0  0
 43 32  2  0  0  0  0
 44 43  1  0  0  0  0
 45 34  2  0  0  0  0
 45 53  1  0  0  0  0
 46 54  2  0  0  0  0
 46 45  1  0  0  0  0
 47 54  1  0  0  0  0
 47 48  2  0  0  0  0
 48 37  1  0  0  0  0
 48 55  1  0  0  0  0
 49 50  1  0  0  0  0
 50 51  1  0  0  0  0
 50 39  2  0  0  0  0
 51 41  2  0  0  0  0
 52 42  2  0  0  0  0
 53 58  2  0  0  0  0
 53 44  1  0  0  0  0
 54 59  1  0  0  0  0
 55 60  1  0  0  0  0
 55 49  2  0  0  0  0
 56 51  1  0  0  0  0
 57 56  2  0  0  0  0
 57 52  1  0  0  0  0
 58 57  1  0  0  0  0
 59 58  1  0  0  0  0
 59 60  2  0  0  0  0
 60 56  1  0  0  0  0
 61 62  1  0  0  0  0
 63 61  1  0  0  0  0
 64 61  1  0  0  0  0
 65 66  1  0  0  0  0
 65 68  1  0  0  0  0
 67 65  1  0  0  0  0
 69 72  1  0  0  0  0
 70 69  1  0  0  0  0
 71 69  1  0  0  0  0
 73 75  1  0  0  0  0
 74 73  1  0  0  0  0
 76 73  1  0  0  0  0
 77 79  1  0  0  0  0
 77 80  1  0  0  0  0
 78 77  1  0  0  0  0
M  END
