5
 OpenBabel05122313113D

 33 33  0  0  0  0  0  0  0  0999 V2000
    0.6245   -1.9847    0.8124 N   0  0  0  0  0  0  0  0  0  0  0  0
   -6.0031    0.6282   -0.6501 N   0  0  0  0  0  0  0  0  0  0  0  0
   -2.9720   -1.2553    0.2554 C   0  0  0  0  0  0  0  0  0  0  0  0
   -1.5748   -1.1360    0.2031 C   0  0  0  0  0  0  0  0  0  0  0  0
   -0.9322    0.1282    0.1207 C   0  0  0  0  0  3  0  0  0  0  0  0
   -1.7777    1.2566    0.0356 C   0  0  0  0  0  0  0  0  0  0  0  0
   -3.1764    1.1401    0.0802 C   0  0  0  0  0  0  0  0  0  0  0  0
   -3.7960   -0.1171    0.2062 C   0  0  0  0  0  0  0  0  0  0  0  0
   -0.6653   -2.3255    0.1378 C   0  0  0  0  0  0  0  0  0  0  0  0
    1.6769   -2.9368    0.4019 C   0  0  0  0  0  0  0  0  0  0  0  0
    0.4225   -2.0501    2.2747 C   0  0  0  0  0  0  0  0  0  0  0  0
   -5.3039   -0.2286    0.2987 C   0  0  0  0  0  0  0  0  0  0  0  0
   -5.7631    0.2448   -2.0294 C   0  0  0  0  0  0  0  0  0  0  0  0
   -7.4150    0.7485   -0.3523 C   0  0  0  0  0  0  0  0  0  0  0  0
   -3.4344   -2.2554    0.3220 H   0  0  0  0  0  0  0  0  0  0  0  0
   -1.3526    2.2629   -0.0974 H   0  0  0  0  0  0  0  0  0  0  0  0
   -3.8156    2.0330   -0.0071 H   0  0  0  0  0  0  0  0  0  0  0  0
   -1.1004   -3.2456    0.5910 H   0  0  0  0  0  0  0  0  0  0  0  0
   -0.4150   -2.5291   -0.9235 H   0  0  0  0  0  0  0  0  0  0  0  0
    1.8410   -2.8227   -0.6864 H   0  0  0  0  0  0  0  0  0  0  0  0
    1.3729   -3.9822    0.6372 H   0  0  0  0  0  0  0  0  0  0  0  0
    2.6137   -2.7042    0.9414 H   0  0  0  0  0  0  0  0  0  0  0  0
   -0.3523   -1.3175    2.5669 H   0  0  0  0  0  0  0  0  0  0  0  0
    1.3667   -1.8209    2.7983 H   0  0  0  0  0  0  0  0  0  0  0  0
    0.0906   -3.0709    2.5725 H   0  0  0  0  0  0  0  0  0  0  0  0
   -5.6014   -1.3095    0.1937 H   0  0  0  0  0  0  0  0  0  0  0  0
   -5.6315    0.0769    1.3183 H   0  0  0  0  0  0  0  0  0  0  0  0
   -6.2225    0.9861   -2.7149 H   0  0  0  0  0  0  0  0  0  0  0  0
   -6.1860   -0.7654   -2.2844 H   0  0  0  0  0  0  0  0  0  0  0  0
   -4.6742    0.2161   -2.2314 H   0  0  0  0  0  0  0  0  0  0  0  0
   -7.5575    1.1158    0.6850 H   0  0  0  0  0  0  0  0  0  0  0  0
   -7.9791   -0.2203   -0.4490 H   0  0  0  0  0  0  0  0  0  0  0  0
   -7.8887    1.4773   -1.0419 H   0  0  0  0  0  0  0  0  0  0  0  0
  1 11  1  0  0  0  0
  2 14  1  0  0  0  0
  2 12  1  0  0  0  0
  3 15  1  0  0  0  0
  4  3  2  0  0  0  0
  5  4  1  0  0  0  0
  6  7  1  0  0  0  0
  6  5  2  0  0  0  0
  7  8  2  0  0  0  0
  8  3  1  0  0  0  0
  8 12  1  0  0  0  0
  9  4  1  0  0  0  0
  9 18  1  0  0  0  0
  9  1  1  0  0  0  0
 10 21  1  0  0  0  0
 10  1  1  0  0  0  0
 10 22  1  0  0  0  0
 11 23  1  0  0  0  0
 11 25  1  0  0  0  0
 11 24  1  0  0  0  0
 12 27  1  0  0  0  0
 13  2  1  0  0  0  0
 14 31  1  0  0  0  0
 16  6  1  0  0  0  0
 17  7  1  0  0  0  0
 19  9  1  0  0  0  0
 20 10  1  0  0  0  0
 26 12  1  0  0  0  0
 28 13  1  0  0  0  0
 29 13  1  0  0  0  0
 30 13  1  0  0  0  0
 32 14  1  0  0  0  0
 33 14  1  0  0  0  0
M  END
