4
 OpenBabel05122313113D

 33 34  0  0  0  0  0  0  0  0999 V2000
   -2.3203   -1.4854   -0.4738 N   0  0  0  0  0  0  0  0  0  0  0  0
    0.4362   -1.8194   -1.3900 O   0  0  0  0  0  0  0  0  0  0  0  0
   -3.7713   -2.9206    0.5584 O   0  0  0  0  0  0  0  0  0  0  0  0
    0.4883   -0.5522   -0.9627 C   0  0  0  0  0  2  0  0  0  0  0  0
   -0.7096    0.2473   -1.1024 C   0  0  0  0  0  0  0  0  0  0  0  0
   -0.5620    1.3209   -1.2874 H   0  0  0  0  0  0  0  0  0  0  0  0
   -1.9920   -0.1496   -0.7691 C   0  0  0  0  0  0  0  0  0  0  0  0
   -1.8793   -2.6150   -1.3095 C   0  0  0  0  0  0  0  0  0  0  0  0
   -2.7186   -2.9718   -1.9494 H   0  0  0  0  0  0  0  0  0  0  0  0
   -1.6291   -3.4566   -0.6341 H   0  0  0  0  0  0  0  0  0  0  0  0
   -0.6970   -2.2583   -2.1799 C   0  0  0  0  0  0  0  0  0  0  0  0
   -0.3499   -3.1587   -2.7212 H   0  0  0  0  0  0  0  0  0  0  0  0
   -0.9466   -1.4674   -2.9174 H   0  0  0  0  0  0  0  0  0  0  0  0
   -3.2006   -1.8341    0.5713 C   0  0  0  0  0  0  0  0  0  0  0  0
   -3.3104   -0.8924    1.7389 C   0  0  0  0  0  0  0  0  0  0  0  0
   -2.1925   -0.3507    2.2704 C   0  0  0  0  0  0  0  0  0  0  0  0
   -2.2383    0.2510    3.1918 H   0  0  0  0  0  0  0  0  0  0  0  0
   -1.1997   -0.4985    1.8190 H   0  0  0  0  0  0  0  0  0  0  0  0
   -4.6834   -0.7616    2.3306 C   0  0  0  0  0  0  0  0  0  0  0  0
   -5.1210   -1.7677    2.4902 H   0  0  0  0  0  0  0  0  0  0  0  0
   -5.3561   -0.2241    1.6283 H   0  0  0  0  0  0  0  0  0  0  0  0
   -4.6630   -0.2118    3.2898 H   0  0  0  0  0  0  0  0  0  0  0  0
   -3.0900    0.8416   -0.6881 C   0  0  0  0  0  0  0  0  0  0  0  0
   -2.8622    2.1581   -0.2263 C   0  0  0  0  0  0  0  0  0  0  0  0
   -1.8729    2.4308    0.1692 H   0  0  0  0  0  0  0  0  0  0  0  0
   -3.9041    3.0924   -0.2061 C   0  0  0  0  0  0  0  0  0  0  0  0
   -3.7147    4.1083    0.1716 H   0  0  0  0  0  0  0  0  0  0  0  0
   -5.1903    2.7318   -0.6430 C   0  0  0  0  0  0  0  0  0  0  0  0
   -6.0080    3.4678   -0.6218 H   0  0  0  0  0  0  0  0  0  0  0  0
   -5.4299    1.4241   -1.0945 C   0  0  0  0  0  0  0  0  0  0  0  0
   -6.4334    1.1335   -1.4403 H   0  0  0  0  0  0  0  0  0  0  0  0
   -4.3920    0.4832   -1.1107 C   0  0  0  0  0  0  0  0  0  0  0  0
   -4.5843   -0.5382   -1.4719 H   0  0  0  0  0  0  0  0  0  0  0  0
  1 14  1  0  0  0  0
  2  4  1  0  0  0  0
  3 14  2  0  0  0  0
  5  4  1  0  0  0  0
  5  7  2  0  0  0  0
  6  5  1  0  0  0  0
  7 23  1  0  0  0  0
  7  1  1  0  0  0  0
  8 10  1  0  0  0  0
  8  1  1  0  0  0  0
  9  8  1  0  0  0  0
 11  2  1  0  0  0  0
 11  8  1  0  0  0  0
 12 11  1  0  0  0  0
 13 11  1  0  0  0  0
 14 15  1  0  0  0  0
 15 16  2  0  0  0  0
 15 19  1  0  0  0  0
 16 17  1  0  0  0  0
 18 16  1  0  0  0  0
 19 20  1  0  0  0  0
 19 22  1  0  0  0  0
 21 19  1  0  0  0  0
 23 24  1  0  0  0  0
 24 26  2  0  0  0  0
 24 25  1  0  0  0  0
 26 27  1  0  0  0  0
 28 29  1  0  0  0  0
 28 26  1  0  0  0  0
 30 28  2  0  0  0  0
 31 30  1  0  0  0  0
 32 30  1  0  0  0  0
 32 23  2  0  0  0  0
 33 32  1  0  0  0  0
M  END
