8
 OpenBabel05122313113D

 36 36  0  0  0  0  0  0  0  0999 V2000
   -1.6990    0.1068   -0.7848 C   0  0  0  0  0  0  0  0  0  0  0  0
   -2.2889    1.3808   -1.0696 C   0  0  0  0  0  0  0  0  0  0  0  0
   -3.1851    1.7989   -0.6011 H   0  0  0  0  0  0  0  0  0  0  0  0
   -1.4968    2.0559   -2.0388 C   0  0  0  0  0  0  0  0  0  0  0  0
   -1.6750    3.0689   -2.4193 H   0  0  0  0  0  0  0  0  0  0  0  0
   -0.4101    1.2032   -2.3898 C   0  0  0  0  0  0  0  0  0  0  0  0
    0.3910    1.4441   -3.0976 H   0  0  0  0  0  0  0  0  0  0  0  0
   -0.5099    0.0244   -1.6032 C   0  0  0  0  0  3  0  0  0  0  0  0
    0.1948   -0.8194   -1.5983 H   0  0  0  0  0  0  0  0  0  0  0  0
   -2.2945   -1.3856    0.1315 P   0  0  0  0  0  0  0  0  0  0  0  0
   -2.9793   -2.3945   -1.3741 C   0  0  0  0  0  0  0  0  0  0  0  0
   -3.9203   -3.4941   -0.8541 C   0  0  0  0  0  0  0  0  0  0  0  0
   -4.8841   -3.0903   -0.4890 H   0  0  0  0  0  0  0  0  0  0  0  0
   -3.4554   -4.0847   -0.0385 H   0  0  0  0  0  0  0  0  0  0  0  0
   -4.1522   -4.1961   -1.6836 H   0  0  0  0  0  0  0  0  0  0  0  0
   -3.6815   -1.5515   -2.4478 C   0  0  0  0  0  0  0  0  0  0  0  0
   -4.0094   -2.2104   -3.2815 H   0  0  0  0  0  0  0  0  0  0  0  0
   -3.0038   -0.7867   -2.8751 H   0  0  0  0  0  0  0  0  0  0  0  0
   -4.5785   -1.0335   -2.0605 H   0  0  0  0  0  0  0  0  0  0  0  0
   -1.7445   -3.0808   -1.9931 C   0  0  0  0  0  0  0  0  0  0  0  0
   -2.0742   -3.7751   -2.7960 H   0  0  0  0  0  0  0  0  0  0  0  0
   -1.1766   -3.6640   -1.2405 H   0  0  0  0  0  0  0  0  0  0  0  0
   -1.0504   -2.3531   -2.4545 H   0  0  0  0  0  0  0  0  0  0  0  0
   -3.7570   -0.7801    1.2219 C   0  0  0  0  0  0  0  0  0  0  0  0
   -3.1820    0.3219    2.1329 C   0  0  0  0  0  0  0  0  0  0  0  0
   -3.9484    0.6098    2.8842 H   0  0  0  0  0  0  0  0  0  0  0  0
   -2.8888    1.2425    1.5955 H   0  0  0  0  0  0  0  0  0  0  0  0
   -2.2984   -0.0450    2.6934 H   0  0  0  0  0  0  0  0  0  0  0  0
   -5.0111   -0.2688    0.4982 C   0  0  0  0  0  0  0  0  0  0  0  0
   -5.5128   -1.0698   -0.0782 H   0  0  0  0  0  0  0  0  0  0  0  0
   -4.7971    0.5642   -0.1972 H   0  0  0  0  0  0  0  0  0  0  0  0
   -5.7447    0.1035    1.2463 H   0  0  0  0  0  0  0  0  0  0  0  0
   -4.1367   -1.9649    2.1370 C   0  0  0  0  0  0  0  0  0  0  0  0
   -3.2459   -2.3726    2.6566 H   0  0  0  0  0  0  0  0  0  0  0  0
   -4.6213   -2.7941    1.5905 H   0  0  0  0  0  0  0  0  0  0  0  0
   -4.8519   -1.6139    2.9114 H   0  0  0  0  0  0  0  0  0  0  0  0
  1 10  1  0  0  0  0
  2  1  2  0  0  0  0
  2  3  1  0  0  0  0
  4  2  1  0  0  0  0
  5  4  1  0  0  0  0
  6  4  2  0  0  0  0
  6  8  1  0  0  0  0
  7  6  1  0  0  0  0
  8  9  1  0  0  0  0
  8  1  1  0  0  0  0
 10 24  1  0  0  0  0
 11 12  1  0  0  0  0
 11 10  1  0  0  0  0
 12 13  1  0  0  0  0
 12 14  1  0  0  0  0
 15 12  1  0  0  0  0
 16 19  1  0  0  0  0
 16 11  1  0  0  0  0
 17 16  1  0  0  0  0
 18 16  1  0  0  0  0
 20 11  1  0  0  0  0
 20 22  1  0  0  0  0
 21 20  1  0  0  0  0
 23 20  1  0  0  0  0
 24 25  1  0  0  0  0
 24 33  1  0  0  0  0
 25 28  1  0  0  0  0
 25 26  1  0  0  0  0
 27 25  1  0  0  0  0
 29 24  1  0  0  0  0
 29 32  1  0  0  0  0
 30 29  1  0  0  0  0
 31 29  1  0  0  0  0
 33 34  1  0  0  0  0
 33 36  1  0  0  0  0
 35 33  1  0  0  0  0
M  END
