5
 OpenBabel05122313113D

 25 26  0  0  1  0  0  0  0  0999 V2000
   -0.0863    1.8545   -0.6817 C   0  0  0  0  0  0  0  0  0  0  0  0
    0.0003    2.2411   -1.7071 H   0  0  0  0  0  0  0  0  0  0  0  0
   -1.2098    2.1910    0.1150 C   0  0  0  0  0  0  0  0  0  0  0  0
   -1.9967    2.8398   -0.2937 H   0  0  0  0  0  0  0  0  0  0  0  0
   -1.3618    1.6328    1.4259 C   0  0  0  0  0  3  0  0  0  0  0  0
   -2.2642    1.8579    2.0106 H   0  0  0  0  0  0  0  0  0  0  0  0
   -0.3913    0.7370    1.9422 C   0  0  0  0  0  0  0  0  0  0  0  0
   -0.5391    0.2693    2.9257 H   0  0  0  0  0  0  0  0  0  0  0  0
    0.7469    0.4071    1.1447 C   0  0  0  0  0  0  0  0  0  0  0  0
    1.8925   -0.5260    1.4398 C   0  0  0  0  0  0  0  0  0  0  0  0
    1.5792   -1.4415    1.9801 H   0  0  0  0  0  0  0  0  0  0  0  0
    2.6413   -0.0067    2.0807 H   0  0  0  0  0  0  0  0  0  0  0  0
    2.4742   -0.8265    0.0348 C   0  0  1  0  0  0  0  0  0  0  0  0
    1.8356   -1.6244   -0.4010 H   0  0  0  0  0  0  0  0  0  0  0  0
    2.1722    0.4593   -0.8025 C   0  0  1  0  0  0  0  0  0  0  0  0
    2.0000    0.1919   -1.8662 H   0  0  0  0  0  0  0  0  0  0  0  0
    0.8952    0.9580   -0.1592 C   0  0  2  0  0  3  0  0  0  0  0  0
    3.2605    1.5432   -0.7346 C   0  0  0  0  0  0  0  0  0  0  0  0
    4.2012    1.1987   -1.2073 H   0  0  0  0  0  0  0  0  0  0  0  0
    3.4879    1.8296    0.3129 H   0  0  0  0  0  0  0  0  0  0  0  0
    2.9335    2.4600   -1.2650 H   0  0  0  0  0  0  0  0  0  0  0  0
    3.9211   -1.3077    0.0342 C   0  0  0  0  0  0  0  0  0  0  0  0
    4.0189   -2.2547    0.6025 H   0  0  0  0  0  0  0  0  0  0  0  0
    4.6052   -0.5694    0.5007 H   0  0  0  0  0  0  0  0  0  0  0  0
    4.2829   -1.5009   -0.9963 H   0  0  0  0  0  0  0  0  0  0  0  0
  1  3  2  0  0  0  0
  2  1  1  0  0  0  0
  3  5  1  0  0  0  0
  4  3  1  0  0  0  0
  5  7  1  0  0  0  0
  5  6  1  0  0  0  0
  7  8  1  0  0  0  0
  9 10  1  0  0  0  0
  9  7  2  0  0  0  0
 10 11  1  0  0  0  0
 10 12  1  0  0  0  0
 13 14  1  6  0  0  0
 13 10  1  0  0  0  0
 15 16  1  6  0  0  0
 15 18  1  0  0  0  0
 15 17  1  0  0  0  0
 15 13  1  0  0  0  0
 17  1  1  1  0  0  0
 17  9  1  0  0  0  0
 18 20  1  0  0  0  0
 19 18  1  0  0  0  0
 21 18  1  0  0  0  0
 22 13  1  0  0  0  0
 22 24  1  0  0  0  0
 22 23  1  0  0  0  0
 25 22  1  0  0  0  0
M  END
