3
 OpenBabel05122313113D

 33 32  0  0  0  0  0  0  0  0999 V2000
   -2.5603   -0.1069    0.0350 P   0  0  0  0  0  4  0  0  0  0  0  0
   -0.2940   -0.6276    1.4358 O   0  0  0  0  0  0  0  0  0  0  0  0
    0.1478   -0.1502    0.2226 C   0  0  0  0  0  3  0  0  0  0  0  0
   -0.8998    0.1614   -0.6246 C   0  0  0  0  0  0  0  0  0  0  0  0
   -2.9088   -1.8396    0.5417 C   0  0  0  0  0  0  0  0  0  0  0  0
   -2.4108   -2.8799   -0.4616 C   0  0  0  0  0  0  0  0  0  0  0  0
   -2.9061    0.9844    1.4690 C   0  0  0  0  0  0  0  0  0  0  0  0
   -2.7127    2.4682    1.1488 C   0  0  0  0  0  0  0  0  0  0  0  0
   -3.7674    0.3174   -1.2840 C   0  0  0  0  0  0  0  0  0  0  0  0
   -5.2337    0.2952   -0.8453 C   0  0  0  0  0  0  0  0  0  0  0  0
   -0.7894    0.7747   -1.9987 C   0  0  0  0  0  0  0  0  0  0  0  0
    0.4151   -1.6279    2.1601 C   0  0  0  0  0  0  0  0  0  0  0  0
   -4.0085   -1.9006    0.6847 H   0  0  0  0  0  0  0  0  0  0  0  0
   -2.4478   -1.9773    1.5385 H   0  0  0  0  0  0  0  0  0  0  0  0
   -2.8850   -2.7623   -1.4565 H   0  0  0  0  0  0  0  0  0  0  0  0
   -1.3139   -2.8071   -0.5997 H   0  0  0  0  0  0  0  0  0  0  0  0
   -2.6458   -3.9008   -0.1030 H   0  0  0  0  0  0  0  0  0  0  0  0
   -2.2129    0.6490    2.2652 H   0  0  0  0  0  0  0  0  0  0  0  0
   -3.9387    0.7589    1.8104 H   0  0  0  0  0  0  0  0  0  0  0  0
   -1.6848    2.6709    0.7867 H   0  0  0  0  0  0  0  0  0  0  0  0
   -3.4274    2.8302    0.3829 H   0  0  0  0  0  0  0  0  0  0  0  0
   -2.8723    3.0762    2.0603 H   0  0  0  0  0  0  0  0  0  0  0  0
   -3.5845   -0.3935   -2.1170 H   0  0  0  0  0  0  0  0  0  0  0  0
   -3.4816    1.3183   -1.6665 H   0  0  0  0  0  0  0  0  0  0  0  0
   -5.5489   -0.6983   -0.4694 H   0  0  0  0  0  0  0  0  0  0  0  0
   -5.4441    1.0441   -0.0567 H   0  0  0  0  0  0  0  0  0  0  0  0
   -5.8845    0.5370   -1.7078 H   0  0  0  0  0  0  0  0  0  0  0  0
   -1.4010    0.2347   -2.7492 H   0  0  0  0  0  0  0  0  0  0  0  0
   -1.0960    1.8423   -2.0282 H   0  0  0  0  0  0  0  0  0  0  0  0
    0.2556    0.7312   -2.3487 H   0  0  0  0  0  0  0  0  0  0  0  0
    0.5561   -2.5453    1.5503 H   0  0  0  0  0  0  0  0  0  0  0  0
    1.3987   -1.2666    2.5185 H   0  0  0  0  0  0  0  0  0  0  0  0
   -0.2117   -1.8709    3.0385 H   0  0  0  0  0  0  0  0  0  0  0  0
  1  5  1  0  0  0  0
  1  7  1  0  0  0  0
  2 12  1  0  0  0  0
  3  2  1  0  0  0  0
  4  1  1  0  0  0  0
  4  3  2  0  0  0  0
  5 13  1  0  0  0  0
  5 14  1  0  0  0  0
  6 17  1  0  0  0  0
  6  5  1  0  0  0  0
  7 19  1  0  0  0  0
  7 18  1  0  0  0  0
  8  7  1  0  0  0  0
  8 22  1  0  0  0  0
  9 10  1  0  0  0  0
  9  1  1  0  0  0  0
 10 25  1  0  0  0  0
 10 26  1  0  0  0  0
 11  4  1  0  0  0  0
 12 32  1  0  0  0  0
 12 33  1  0  0  0  0
 15  6  1  0  0  0  0
 16  6  1  0  0  0  0
 20  8  1  0  0  0  0
 21  8  1  0  0  0  0
 23  9  1  0  0  0  0
 24  9  1  0  0  0  0
 27 10  1  0  0  0  0
 28 11  1  0  0  0  0
 29 11  1  0  0  0  0
 30 11  1  0  0  0  0
 31 12  1  0  0  0  0
M  END
