2
 OpenBabel05122313113D

 22 24  0  0  0  0  0  0  0  0999 V2000
    5.3687    2.9260   -0.7613 S   0  0  0  0  0  0  0  0  0  0  0  0
    0.7878    0.7196   -0.0903 C   0  0  0  0  0  2  0  0  0  0  0  0
    0.6027    1.3674   -0.9775 H   0  0  0  0  0  0  0  0  0  0  0  0
    2.2085    0.6533    0.1703 C   0  0  0  0  0  0  0  0  0  0  0  0
    2.7883   -0.4744    0.7720 C   0  0  0  0  0  0  0  0  0  0  0  0
    2.1269   -1.2997    1.0650 H   0  0  0  0  0  0  0  0  0  0  0  0
    4.1909   -0.6418    0.9196 C   0  0  0  0  0  0  0  0  0  0  0  0
    4.7378   -1.8294    1.4917 C   0  0  0  0  0  0  0  0  0  0  0  0
    4.0463   -2.6220    1.8159 H   0  0  0  0  0  0  0  0  0  0  0  0
    6.1086   -1.9840    1.6362 C   0  0  0  0  0  0  0  0  0  0  0  0
    6.5197   -2.9006    2.0841 H   0  0  0  0  0  0  0  0  0  0  0  0
    6.9865   -0.9555    1.2039 C   0  0  0  0  0  0  0  0  0  0  0  0
    8.0731   -1.0827    1.3214 H   0  0  0  0  0  0  0  0  0  0  0  0
    6.4885    0.2091    0.6295 C   0  0  0  0  0  0  0  0  0  0  0  0
    7.1802    0.9960    0.2918 H   0  0  0  0  0  0  0  0  0  0  0  0
    5.0905    0.3949    0.4697 C   0  0  0  0  0  0  0  0  0  0  0  0
    4.4974    1.5484   -0.1336 C   0  0  0  0  0  0  0  0  0  0  0  0
    3.1004    1.6975   -0.3078 C   0  0  0  0  0  0  0  0  0  0  0  0
    2.7718    2.9403   -0.9487 C   0  0  0  0  0  0  0  0  0  0  0  0
    1.7509    3.2803   -1.1660 H   0  0  0  0  0  0  0  0  0  0  0  0
    3.8876    3.6899   -1.2492 C   0  0  0  0  0  0  0  0  0  0  0  0
    3.9270    4.6725   -1.7356 H   0  0  0  0  0  0  0  0  0  0  0  0
  1 17  1  0  0  0  0
  2  4  1  0  0  0  0
  3  2  1  0  0  0  0
  4  5  1  0  0  0  0
  5  7  2  0  0  0  0
  5  6  1  0  0  0  0
  7  8  1  0  0  0  0
  8 10  2  0  0  0  0
  8  9  1  0  0  0  0
 10 11  1  0  0  0  0
 12 13  1  0  0  0  0
 12 10  1  0  0  0  0
 14 12  2  0  0  0  0
 15 14  1  0  0  0  0
 16 14  1  0  0  0  0
 16  7  1  0  0  0  0
 17 16  2  0  0  0  0
 18 17  1  0  0  0  0
 18  4  2  0  0  0  0
 19 18  1  0  0  0  0
 20 19  1  0  0  0  0
 21 19  2  0  0  0  0
 21  1  1  0  0  0  0
 22 21  1  0  0  0  0
M  END
