3
 OpenBabel05122313113D

 70 72  0  0  0  0  0  0  0  0999 V2000
    0.7716    1.2679   -1.2164 N   0  0  0  0  0  0  0  0  0  0  0  0
   -1.5130    0.8709   -1.0586 N   0  0  0  0  0  0  0  0  0  0  0  0
   -0.2586    0.6336   -0.6004 C   0  0  0  0  0  2  0  0  0  0  0  0
    0.6322    2.2126   -2.3320 C   0  0  0  0  0  0  0  0  0  0  0  0
    0.8477    1.6895   -3.2925 H   0  0  0  0  0  0  0  0  0  0  0  0
    1.4074    2.9975   -2.2159 H   0  0  0  0  0  0  0  0  0  0  0  0
   -0.7666    2.8171   -2.3442 C   0  0  0  0  0  0  0  0  0  0  0  0
   -0.8772    3.5185   -1.4901 H   0  0  0  0  0  0  0  0  0  0  0  0
   -0.9226    3.3993   -3.2734 H   0  0  0  0  0  0  0  0  0  0  0  0
   -1.8103    1.7120   -2.2252 C   0  0  0  0  0  0  0  0  0  0  0  0
   -2.8285    2.1301   -2.0987 H   0  0  0  0  0  0  0  0  0  0  0  0
   -1.8308    1.0827   -3.1451 H   0  0  0  0  0  0  0  0  0  0  0  0
    2.1189    0.9293   -0.8267 C   0  0  0  0  0  0  0  0  0  0  0  0
    2.7699   -0.1530   -1.4693 C   0  0  0  0  0  0  0  0  0  0  0  0
    4.1038   -0.4248   -1.1125 C   0  0  0  0  0  0  0  0  0  0  0  0
    4.6269   -1.2695   -1.5862 H   0  0  0  0  0  0  0  0  0  0  0  0
    4.7687    0.3509   -0.1563 C   0  0  0  0  0  0  0  0  0  0  0  0
    5.8105    0.1191    0.1121 H   0  0  0  0  0  0  0  0  0  0  0  0
    4.1036    1.4105    0.4731 C   0  0  0  0  0  0  0  0  0  0  0  0
    4.6261    1.9998    1.2415 H   0  0  0  0  0  0  0  0  0  0  0  0
    2.7710    1.7240    0.1495 C   0  0  0  0  0  0  0  0  0  0  0  0
    2.0252    2.8092    0.9132 C   0  0  0  0  0  0  0  0  0  0  0  0
    1.0847    3.0172    0.3618 H   0  0  0  0  0  0  0  0  0  0  0  0
    1.6247    2.2664    2.2969 C   0  0  0  0  0  0  0  0  0  0  0  0
    1.0044    2.9987    2.8528 H   0  0  0  0  0  0  0  0  0  0  0  0
    2.5218    2.0350    2.9074 H   0  0  0  0  0  0  0  0  0  0  0  0
    1.0430    1.3269    2.1852 H   0  0  0  0  0  0  0  0  0  0  0  0
    2.8082    4.1254    1.0169 C   0  0  0  0  0  0  0  0  0  0  0  0
    2.1950    4.9020    1.5176 H   0  0  0  0  0  0  0  0  0  0  0  0
    3.1003    4.5076    0.0177 H   0  0  0  0  0  0  0  0  0  0  0  0
    3.7350    4.0076    1.6152 H   0  0  0  0  0  0  0  0  0  0  0  0
    2.0535   -1.0475   -2.4720 C   0  0  0  0  0  0  0  0  0  0  0  0
    1.0392   -0.6266   -2.6295 H   0  0  0  0  0  0  0  0  0  0  0  0
    2.7626   -1.0715   -3.8354 C   0  0  0  0  0  0  0  0  0  0  0  0
    3.7776   -1.5130   -3.7585 H   0  0  0  0  0  0  0  0  0  0  0  0
    2.8743   -0.0511   -4.2557 H   0  0  0  0  0  0  0  0  0  0  0  0
    2.1903   -1.6838   -4.5619 H   0  0  0  0  0  0  0  0  0  0  0  0
    1.8670   -2.4617   -1.8954 C   0  0  0  0  0  0  0  0  0  0  0  0
    1.2900   -3.0974   -2.5978 H   0  0  0  0  0  0  0  0  0  0  0  0
    1.3241   -2.4260   -0.9283 H   0  0  0  0  0  0  0  0  0  0  0  0
    2.8450   -2.9550   -1.7179 H   0  0  0  0  0  0  0  0  0  0  0  0
   -2.6224    0.1904   -0.4329 C   0  0  0  0  0  0  0  0  0  0  0  0
   -3.4265    0.9239    0.4785 C   0  0  0  0  0  0  0  0  0  0  0  0
   -4.5546    0.2902    1.0268 C   0  0  0  0  0  0  0  0  0  0  0  0
   -5.1888    0.8342    1.7420 H   0  0  0  0  0  0  0  0  0  0  0  0
   -4.8699   -1.0326    0.6894 C   0  0  0  0  0  0  0  0  0  0  0  0
   -5.7571   -1.5148    1.1270 H   0  0  0  0  0  0  0  0  0  0  0  0
   -4.0464   -1.7474   -0.1855 C   0  0  0  0  0  0  0  0  0  0  0  0
   -4.2877   -2.7939   -0.4246 H   0  0  0  0  0  0  0  0  0  0  0  0
   -2.9058   -1.1575   -0.7653 C   0  0  0  0  0  0  0  0  0  0  0  0
   -2.0326   -1.9761   -1.7078 C   0  0  0  0  0  0  0  0  0  0  0  0
   -1.1138   -1.3875   -1.9070 H   0  0  0  0  0  0  0  0  0  0  0  0
   -2.7404   -2.2079   -3.0546 C   0  0  0  0  0  0  0  0  0  0  0  0
   -2.0797   -2.7599   -3.7545 H   0  0  0  0  0  0  0  0  0  0  0  0
   -3.0306   -1.2513   -3.5360 H   0  0  0  0  0  0  0  0  0  0  0  0
   -3.6656   -2.8068   -2.9228 H   0  0  0  0  0  0  0  0  0  0  0  0
   -1.5878   -3.2980   -1.0581 C   0  0  0  0  0  0  0  0  0  0  0  0
   -0.9177   -3.8538   -1.7447 H   0  0  0  0  0  0  0  0  0  0  0  0
   -2.4544   -3.9564   -0.8424 H   0  0  0  0  0  0  0  0  0  0  0  0
   -1.0414   -3.1175   -0.1076 H   0  0  0  0  0  0  0  0  0  0  0  0
   -2.9985    2.3065    0.9529 C   0  0  0  0  0  0  0  0  0  0  0  0
   -2.3615    2.7523    0.1612 H   0  0  0  0  0  0  0  0  0  0  0  0
   -4.1646    3.2705    1.2028 C   0  0  0  0  0  0  0  0  0  0  0  0
   -4.7945    2.9445    2.0557 H   0  0  0  0  0  0  0  0  0  0  0  0
   -4.8210    3.3613    0.3137 H   0  0  0  0  0  0  0  0  0  0  0  0
   -3.7819    4.2805    1.4540 H   0  0  0  0  0  0  0  0  0  0  0  0
   -2.1121    2.1452    2.2028 C   0  0  0  0  0  0  0  0  0  0  0  0
   -1.2763    1.4441    2.0018 H   0  0  0  0  0  0  0  0  0  0  0  0
   -2.7000    1.7258    3.0450 H   0  0  0  0  0  0  0  0  0  0  0  0
   -1.6886    3.1192    2.5244 H   0  0  0  0  0  0  0  0  0  0  0  0
  1 13  1  0  0  0  0
  1  3  1  0  0  0  0
  2  3  1  0  0  0  0
  2 42  1  0  0  0  0
  4  6  1  0  0  0  0
  4  1  1  0  0  0  0
  5  4  1  0  0  0  0
  7  4  1  0  0  0  0
  7 10  1  0  0  0  0
  7  8  1  0  0  0  0
  9  7  1  0  0  0  0
 10 11  1  0  0  0  0
 10  2  1  0  0  0  0
 12 10  1  0  0  0  0
 13 21  1  0  0  0  0
 14 15  1  0  0  0  0
 14 13  2  0  0  0  0
 15 17  2  0  0  0  0
 16 15  1  0  0  0  0
 17 18  1  0  0  0  0
 17 19  1  0  0  0  0
 19 20  1  0  0  0  0
 21 19  2  0  0  0  0
 21 22  1  0  0  0  0
 22 28  1  0  0  0  0
 22 24  1  0  0  0  0
 23 22  1  0  0  0  0
 24 25  1  0  0  0  0
 24 26  1  0  0  0  0
 27 24  1  0  0  0  0
 28 29  1  0  0  0  0
 28 31  1  0  0  0  0
 30 28  1  0  0  0  0
 32 38  1  0  0  0  0
 32 14  1  0  0  0  0
 33 32  1  0  0  0  0
 34 35  1  0  0  0  0
 34 32  1  0  0  0  0
 36 34  1  0  0  0  0
 37 34  1  0  0  0  0
 38 41  1  0  0  0  0
 38 40  1  0  0  0  0
 39 38  1  0  0  0  0
 42 43  1  0  0  0  0
 43 61  1  0  0  0  0
 43 44  2  0  0  0  0
 44 45  1  0  0  0  0
 46 44  1  0  0  0  0
 46 47  1  0  0  0  0
 48 46  2  0  0  0  0
 49 48  1  0  0  0  0
 50 42  2  0  0  0  0
 50 48  1  0  0  0  0
 51 57  1  0  0  0  0
 51 50  1  0  0  0  0
 52 51  1  0  0  0  0
 53 56  1  0  0  0  0
 53 51  1  0  0  0  0
 54 53  1  0  0  0  0
 55 53  1  0  0  0  0
 57 59  1  0  0  0  0
 57 60  1  0  0  0  0
 58 57  1  0  0  0  0
 61 63  1  0  0  0  0
 61 67  1  0  0  0  0
 62 61  1  0  0  0  0
 63 66  1  0  0  0  0
 63 64  1  0  0  0  0
 65 63  1  0  0  0  0
 67 70  1  0  0  0  0
 67 69  1  0  0  0  0
 68 67  1  0  0  0  0
M  END
