6
 OpenBabel05122313113D

 21 21  0  0  0  0  0  0  0  0999 V2000
   -0.2544    1.6242    0.0000 S   0  0  0  0  0  0  0  0  0  0  0  0
   -3.3500    1.9132    0.0000 S   0  0  0  0  0  0  0  0  0  0  0  0
   -0.4685   -0.8525    0.0000 N   0  0  0  0  0  0  0  0  0  0  0  0
   -2.5854   -2.6578    0.0001 O   0  0  0  0  0  0  0  0  0  0  0  0
   -4.0694   -0.9187    0.0001 O   0  0  0  0  0  0  0  0  0  0  0  0
    0.5253    0.0555    0.0000 C   0  0  0  0  0  2  0  0  0  0  0  0
   -1.7934   -0.4226    0.0000 C   0  0  0  0  0  0  0  0  0  0  0  0
   -1.8899    0.9615    0.0000 C   0  0  0  0  0  0  0  0  0  0  0  0
   -2.6504    3.5942    0.0001 C   0  0  0  0  0  0  0  0  0  0  0  0
   -2.8341   -1.4600    0.0001 C   0  0  0  0  0  0  0  0  0  0  0  0
   -5.1789   -1.8476    0.0001 C   0  0  0  0  0  0  0  0  0  0  0  0
   -6.4576   -1.0378   -0.0002 C   0  0  0  0  0  0  0  0  0  0  0  0
   -0.2896   -1.8654    0.0001 H   0  0  0  0  0  0  0  0  0  0  0  0
   -2.0450    3.7791   -0.9091 H   0  0  0  0  0  0  0  0  0  0  0  0
   -3.5215    4.2761   -0.0002 H   0  0  0  0  0  0  0  0  0  0  0  0
   -2.0454    3.7792    0.9094 H   0  0  0  0  0  0  0  0  0  0  0  0
   -5.0906   -2.5028    0.8922 H   0  0  0  0  0  0  0  0  0  0  0  0
   -5.0904   -2.5032   -0.8916 H   0  0  0  0  0  0  0  0  0  0  0  0
   -6.5180   -0.3917   -0.8981 H   0  0  0  0  0  0  0  0  0  0  0  0
   -6.5182   -0.3913    0.8974 H   0  0  0  0  0  0  0  0  0  0  0  0
   -7.3333   -1.7160   -0.0001 H   0  0  0  0  0  0  0  0  0  0  0  0
  1  8  1  0  0  0  0
  1  6  1  0  0  0  0
  2  8  1  0  0  0  0
  2  9  1  0  0  0  0
  3  6  1  0  0  0  0
  3 13  1  0  0  0  0
  5 10  1  0  0  0  0
  5 11  1  0  0  0  0
  7  8  2  0  0  0  0
  7  3  1  0  0  0  0
  7 10  1  0  0  0  0
  9 16  1  0  0  0  0
 10  4  2  0  0  0  0
 11 17  1  0  0  0  0
 12 21  1  0  0  0  0
 12 11  1  0  0  0  0
 12 20  1  0  0  0  0
 14  9  1  0  0  0  0
 15  9  1  0  0  0  0
 18 11  1  0  0  0  0
 19 12  1  0  0  0  0
M  END
