3
 OpenBabel05122313113D

 43 45  0  0  1  0  0  0  0  0999 V2000
    1.9557    1.3984   -0.0722 N   0  0  0  0  0  4  0  0  0  0  0  0
    2.7886    1.9797   -0.1958 H   0  0  0  0  0  0  0  0  0  0  0  0
   -1.3664    0.4469   -0.0173 C   0  0  0  0  0  3  0  0  0  0  0  0
   -0.4128    1.2738   -0.0448 C   0  0  0  0  0  0  0  0  0  0  0  0
    0.7524    2.0172   -0.0618 C   0  0  0  0  0  0  0  0  0  0  0  0
    0.7272    3.4992   -0.0645 C   0  0  0  0  0  0  0  0  0  0  0  0
   -0.4588    4.1620   -0.4530 C   0  0  0  0  0  0  0  0  0  0  0  0
   -1.3295    3.5525   -0.7386 H   0  0  0  0  0  0  0  0  0  0  0  0
   -0.5148    5.5595   -0.4792 C   0  0  0  0  0  0  0  0  0  0  0  0
   -1.4424    6.0618   -0.7915 H   0  0  0  0  0  0  0  0  0  0  0  0
    0.6077    6.3187   -0.1076 C   0  0  0  0  0  0  0  0  0  0  0  0
    0.5619    7.4180   -0.1254 H   0  0  0  0  0  0  0  0  0  0  0  0
    1.7859    5.6711    0.2984 C   0  0  0  0  0  0  0  0  0  0  0  0
    2.6606    6.2603    0.6118 H   0  0  0  0  0  0  0  0  0  0  0  0
    1.8463    4.2721    0.3221 C   0  0  0  0  0  0  0  0  0  0  0  0
    2.7652    3.7862    0.6864 H   0  0  0  0  0  0  0  0  0  0  0  0
    2.1480   -0.0469   -0.0517 C   0  0  1  0  0  0  0  0  0  0  0  0
    1.1543   -0.4374    0.2314 H   0  0  0  0  0  0  0  0  0  0  0  0
    2.4832   -0.6098   -1.4669 C   0  0  0  0  0  0  0  0  0  0  0  0
    1.5362   -0.9195   -1.9546 H   0  0  0  0  0  0  0  0  0  0  0  0
    2.9112    0.1981   -2.0987 H   0  0  0  0  0  0  0  0  0  0  0  0
    3.4872   -1.7668   -1.4129 C   0  0  2  0  0  0  0  0  0  0  0  0
    3.6158   -2.2246   -2.4162 H   0  0  0  0  0  0  0  0  0  0  0  0
    3.2115   -2.7412   -0.2112 C   0  0  0  0  0  0  0  0  0  0  0  0
    3.9896   -1.6687    0.6461 C   0  0  2  0  0  0  0  0  0  0  0  0
    4.5785   -2.0503    1.5072 H   0  0  0  0  0  0  0  0  0  0  0  0
    3.1456   -0.4529    1.0762 C   0  0  2  0  0  0  0  0  0  0  0  0
    3.8729    0.3843    1.1974 H   0  0  0  0  0  0  0  0  0  0  0  0
    4.7473   -1.2820   -0.6518 C   0  0  0  0  0  0  0  0  0  0  0  0
    5.6436   -1.8989   -0.8430 H   0  0  0  0  0  0  0  0  0  0  0  0
    5.0261   -0.2129   -0.7690 H   0  0  0  0  0  0  0  0  0  0  0  0
    1.7716   -3.1413    0.1163 C   0  0  0  0  0  0  0  0  0  0  0  0
    1.0709   -2.2968    0.2223 H   0  0  0  0  0  0  0  0  0  0  0  0
    1.7286   -3.7219    1.0606 H   0  0  0  0  0  0  0  0  0  0  0  0
    1.3679   -3.7900   -0.6883 H   0  0  0  0  0  0  0  0  0  0  0  0
    4.0314   -4.0357   -0.3362 C   0  0  0  0  0  0  0  0  0  0  0  0
    5.0951   -3.8603   -0.5862 H   0  0  0  0  0  0  0  0  0  0  0  0
    3.6034   -4.6866   -1.1263 H   0  0  0  0  0  0  0  0  0  0  0  0
    4.0004   -4.6032    0.6168 H   0  0  0  0  0  0  0  0  0  0  0  0
    2.4194   -0.6232    2.4146 C   0  0  0  0  0  0  0  0  0  0  0  0
    1.8593    0.2965    2.6810 H   0  0  0  0  0  0  0  0  0  0  0  0
    3.1393   -0.8295    3.2320 H   0  0  0  0  0  0  0  0  0  0  0  0
    1.6898   -1.4559    2.3829 H   0  0  0  0  0  0  0  0  0  0  0  0
  1  5  2  0  0  0  0
  1 17  1  0  0  0  0
  2  1  1  0  0  0  0
  4  3  3  0  0  0  0
  5  4  1  0  0  0  0
  6  5  1  0  0  0  0
  6 15  1  0  0  0  0
  7  6  2  0  0  0  0
  8  7  1  0  0  0  0
  9  7  1  0  0  0  0
  9 11  2  0  0  0  0
 10  9  1  0  0  0  0
 11 13  1  0  0  0  0
 12 11  1  0  0  0  0
 13 15  2  0  0  0  0
 13 14  1  0  0  0  0
 15 16  1  0  0  0  0
 17 18  1  1  0  0  0
 17 27  1  0  0  0  0
 19 22  1  0  0  0  0
 19 17  1  0  0  0  0
 20 19  1  0  0  0  0
 21 19  1  0  0  0  0
 22 23  1  6  0  0  0
 22 29  1  0  0  0  0
 22 24  1  0  0  0  0
 24 32  1  0  0  0  0
 24 25  1  0  0  0  0
 25 27  1  0  0  0  0
 25 26  1  1  0  0  0
 27 28  1  1  0  0  0
 27 40  1  0  0  0  0
 29 25  1  0  0  0  0
 30 29  1  0  0  0  0
 31 29  1  0  0  0  0
 32 33  1  0  0  0  0
 32 34  1  0  0  0  0
 35 32  1  0  0  0  0
 36 24  1  0  0  0  0
 36 39  1  0  0  0  0
 37 36  1  0  0  0  0
 38 36  1  0  0  0  0
 40 41  1  0  0  0  0
 40 42  1  0  0  0  0
 43 40  1  0  0  0  0
M  END
