3
 OpenBabel05122313113D

 40 41  0  0  0  0  0  0  0  0999 V2000
   -0.7401   -1.6966   -1.2060 N   0  0  0  0  0  0  0  0  0  0  0  0
    1.6872   -0.6916    0.5724 N   0  0  0  0  0  0  0  0  0  0  0  0
   -1.0617   -0.5006   -0.6967 C   0  0  0  0  0  2  0  0  0  0  0  0
   -0.0137    0.5248   -0.6856 C   0  0  0  0  0  0  0  0  0  0  0  0
   -0.3473    1.5340   -0.9663 H   0  0  0  0  0  0  0  0  0  0  0  0
    1.2437    0.4550   -0.1267 C   0  0  0  0  0  0  0  0  0  0  0  0
   -1.6212   -2.8616   -1.1555 C   0  0  0  0  0  0  0  0  0  0  0  0
   -2.3715   -2.7424   -0.3612 H   0  0  0  0  0  0  0  0  0  0  0  0
   -1.0131   -3.7644   -0.9480 H   0  0  0  0  0  0  0  0  0  0  0  0
   -2.1396   -3.0028   -2.1266 H   0  0  0  0  0  0  0  0  0  0  0  0
    0.5014   -1.9841   -1.9344 C   0  0  0  0  0  0  0  0  0  0  0  0
    1.0039   -1.0440   -2.2163 H   0  0  0  0  0  0  0  0  0  0  0  0
    0.2539   -2.5607   -2.8483 H   0  0  0  0  0  0  0  0  0  0  0  0
    1.1963   -2.5868   -1.3145 H   0  0  0  0  0  0  0  0  0  0  0  0
    0.8262   -1.3011    1.5759 C   0  0  0  0  0  0  0  0  0  0  0  0
    0.5903   -2.3622    1.3416 H   0  0  0  0  0  0  0  0  0  0  0  0
   -0.1190   -0.7381    1.6347 H   0  0  0  0  0  0  0  0  0  0  0  0
    1.3015   -1.2689    2.5799 H   0  0  0  0  0  0  0  0  0  0  0  0
    2.1278    1.6500   -0.1077 C   0  0  0  0  0  0  0  0  0  0  0  0
    3.0044    1.8716    0.9780 C   0  0  0  0  0  0  0  0  0  0  0  0
    3.0367    1.1412    1.7993 H   0  0  0  0  0  0  0  0  0  0  0  0
    3.8159    3.0119    1.0200 C   0  0  0  0  0  0  0  0  0  0  0  0
    4.4875    3.1711    1.8771 H   0  0  0  0  0  0  0  0  0  0  0  0
    3.7719    3.9504   -0.0236 C   0  0  0  0  0  0  0  0  0  0  0  0
    4.4125    4.8446    0.0085 H   0  0  0  0  0  0  0  0  0  0  0  0
    2.9098    3.7381   -1.1123 C   0  0  0  0  0  0  0  0  0  0  0  0
    2.8760    4.4634   -1.9393 H   0  0  0  0  0  0  0  0  0  0  0  0
    2.0993    2.5971   -1.1564 C   0  0  0  0  0  0  0  0  0  0  0  0
    1.4466    2.4225   -2.0255 H   0  0  0  0  0  0  0  0  0  0  0  0
    2.9608   -1.2409    0.3413 C   0  0  0  0  0  0  0  0  0  0  0  0
    3.4967   -2.2266    1.2071 C   0  0  0  0  0  0  0  0  0  0  0  0
    2.9320   -2.5634    2.0855 H   0  0  0  0  0  0  0  0  0  0  0  0
    4.7600   -2.7830    0.9593 C   0  0  0  0  0  0  0  0  0  0  0  0
    5.1512   -3.5435    1.6525 H   0  0  0  0  0  0  0  0  0  0  0  0
    5.5210   -2.3837   -0.1482 C   0  0  0  0  0  0  0  0  0  0  0  0
    6.5113   -2.8231   -0.3362 H   0  0  0  0  0  0  0  0  0  0  0  0
    4.9883   -1.4190   -1.0199 C   0  0  0  0  0  0  0  0  0  0  0  0
    5.5601   -1.0987   -1.9043 H   0  0  0  0  0  0  0  0  0  0  0  0
    3.7280   -0.8591   -0.7903 C   0  0  0  0  0  0  0  0  0  0  0  0
    3.3294   -0.1179   -1.4953 H   0  0  0  0  0  0  0  0  0  0  0  0
  1  7  1  0  0  0  0
  1  3  1  0  0  0  0
  2 15  1  0  0  0  0
  3  4  1  0  0  0  0
  4  6  2  0  0  0  0
  5  4  1  0  0  0  0
  6 19  1  0  0  0  0
  6  2  1  0  0  0  0
  7  9  1  0  0  0  0
  7  8  1  0  0  0  0
 10  7  1  0  0  0  0
 11 14  1  0  0  0  0
 11  1  1  0  0  0  0
 12 11  1  0  0  0  0
 13 11  1  0  0  0  0
 15 17  1  0  0  0  0
 15 18  1  0  0  0  0
 16 15  1  0  0  0  0
 19 20  1  0  0  0  0
 20 22  2  0  0  0  0
 20 21  1  0  0  0  0
 22 23  1  0  0  0  0
 24 25  1  0  0  0  0
 24 22  1  0  0  0  0
 26 24  2  0  0  0  0
 27 26  1  0  0  0  0
 28 26  1  0  0  0  0
 28 19  2  0  0  0  0
 29 28  1  0  0  0  0
 30  2  1  0  0  0  0
 30 31  1  0  0  0  0
 31 32  1  0  0  0  0
 33 31  2  0  0  0  0
 33 34  1  0  0  0  0
 35 33  1  0  0  0  0
 36 35  1  0  0  0  0
 37 39  1  0  0  0  0
 37 35  2  0  0  0  0
 38 37  1  0  0  0  0
 39 30  2  0  0  0  0
 40 39  1  0  0  0  0
M  END
