1
 OpenBabel05122313113D

 28 29  0  0  0  0  0  0  0  0999 V2000
    0.3041    1.4801    0.8988 C   0  0  0  0  0  2  0  0  0  0  0  0
    1.3210    3.0521    2.2058 C   0  0  0  0  0  0  0  0  0  0  0  0
    2.1588    3.5857    2.6618 H   0  0  0  0  0  0  0  0  0  0  0  0
   -0.0207    3.3083    2.2127 C   0  0  0  0  0  0  0  0  0  0  0  0
   -0.5886    4.1054    2.6998 H   0  0  0  0  0  0  0  0  0  0  0  0
   -2.0675    2.2863    1.1330 C   0  0  0  0  0  0  0  0  0  0  0  0
   -2.1882    1.3515    0.5497 H   0  0  0  0  0  0  0  0  0  0  0  0
   -2.4882    3.4680    0.2588 C   0  0  0  0  0  0  0  0  0  0  0  0
   -2.3709    4.4328    0.7949 H   0  0  0  0  0  0  0  0  0  0  0  0
   -3.5555    3.3608   -0.0188 H   0  0  0  0  0  0  0  0  0  0  0  0
   -1.8835    3.4918   -0.6695 H   0  0  0  0  0  0  0  0  0  0  0  0
   -2.8648    2.1849    2.4335 C   0  0  0  0  0  0  0  0  0  0  0  0
   -2.5249    1.3281    3.0471 H   0  0  0  0  0  0  0  0  0  0  0  0
   -3.9363    2.0338    2.2019 H   0  0  0  0  0  0  0  0  0  0  0  0
   -2.7793    3.1104    3.0400 H   0  0  0  0  0  0  0  0  0  0  0  0
    2.8007    1.3639    1.1568 C   0  0  0  0  0  0  0  0  0  0  0  0
    3.6993    1.2262    2.2313 C   0  0  0  0  0  0  0  0  0  0  0  0
    3.3892    1.5105    3.2475 H   0  0  0  0  0  0  0  0  0  0  0  0
    4.9818    0.7062    2.0142 C   0  0  0  0  0  0  0  0  0  0  0  0
    5.6993    0.5853    2.8379 H   0  0  0  0  0  0  0  0  0  0  0  0
    5.3421    0.3079    0.7204 C   0  0  0  0  0  0  0  0  0  0  0  0
    4.4583    0.4401   -0.3581 C   0  0  0  0  0  0  0  0  0  0  0  0
    4.7767    0.1338   -1.3647 H   0  0  0  0  0  0  0  0  0  0  0  0
    3.1860    0.9846   -0.1423 C   0  0  0  0  0  0  0  0  0  0  0  0
    2.4903    1.1336   -0.9832 H   0  0  0  0  0  0  0  0  0  0  0  0
    6.5646   -0.2118    0.5139 F   0  0  0  0  0  0  0  0  0  0  0  0
    1.5095    1.9261    1.4024 N   0  0  0  0  0  0  0  0  0  0  0  0
   -0.6210    2.3371    1.4218 N   0  0  0  0  0  0  0  0  0  0  0  0
  1 27  1  0  0  0  0
  1 28  1  0  0  0  0
  2  4  2  0  0  0  0
  2  3  1  0  0  0  0
  4  5  1  0  0  0  0
  6 28  1  0  0  0  0
  6 12  1  0  0  0  0
  7  6  1  0  0  0  0
  8  9  1  0  0  0  0
  8  6  1  0  0  0  0
 10  8  1  0  0  0  0
 11  8  1  0  0  0  0
 12 15  1  0  0  0  0
 12 13  1  0  0  0  0
 14 12  1  0  0  0  0
 16 27  1  0  0  0  0
 16 17  1  0  0  0  0
 17 18  1  0  0  0  0
 19 17  2  0  0  0  0
 19 20  1  0  0  0  0
 21 19  1  0  0  0  0
 22 24  1  0  0  0  0
 22 21  2  0  0  0  0
 23 22  1  0  0  0  0
 24 16  2  0  0  0  0
 25 24  1  0  0  0  0
 26 21  1  0  0  0  0
 27  2  1  0  0  0  0
 28  4  1  0  0  0  0
M  END
