1
 OpenBabel05122313113D

 28 29  0  0  0  0  0  0  0  0999 V2000
    0.4739   -1.7585   -0.7471 C   0  0  0  0  0  2  0  0  0  0  0  0
    1.6687   -3.5657   -1.4795 C   0  0  0  0  0  0  0  0  0  0  0  0
    2.5566   -4.1201   -1.7942 H   0  0  0  0  0  0  0  0  0  0  0  0
    0.3563   -3.9387   -1.3743 C   0  0  0  0  0  0  0  0  0  0  0  0
   -0.1263   -4.8970   -1.5843 H   0  0  0  0  0  0  0  0  0  0  0  0
   -1.7817   -2.7919   -0.5692 C   0  0  0  0  0  0  0  0  0  0  0  0
   -1.9714   -1.7115   -0.3946 H   0  0  0  0  0  0  0  0  0  0  0  0
   -2.0120   -3.5553    0.7357 C   0  0  0  0  0  0  0  0  0  0  0  0
   -1.3675   -3.1488    1.5405 H   0  0  0  0  0  0  0  0  0  0  0  0
   -3.0676   -3.4540    1.0529 H   0  0  0  0  0  0  0  0  0  0  0  0
   -1.7934   -4.6370    0.6188 H   0  0  0  0  0  0  0  0  0  0  0  0
   -2.6620   -3.2522   -1.7277 C   0  0  0  0  0  0  0  0  0  0  0  0
   -2.5286   -4.3306   -1.9540 H   0  0  0  0  0  0  0  0  0  0  0  0
   -3.7256   -3.0961   -1.4582 H   0  0  0  0  0  0  0  0  0  0  0  0
   -2.4455   -2.6576   -2.6366 H   0  0  0  0  0  0  0  0  0  0  0  0
    2.9008   -1.4641   -0.8834 C   0  0  0  0  0  0  0  0  0  0  0  0
    3.8172   -1.8737    0.1046 C   0  0  0  0  0  0  0  0  0  0  0  0
    4.8926   -1.0541    0.4769 C   0  0  0  0  0  0  0  0  0  0  0  0
    5.0310    0.2136   -0.1125 C   0  0  0  0  0  0  0  0  0  0  0  0
    4.1381    0.6236   -1.1149 C   0  0  0  0  0  0  0  0  0  0  0  0
    3.0839   -0.2156   -1.5073 C   0  0  0  0  0  0  0  0  0  0  0  0
    3.6461   -3.0418    0.7248 F   0  0  0  0  0  0  0  0  0  0  0  0
    5.7396   -1.4433    1.4302 F   0  0  0  0  0  0  0  0  0  0  0  0
    6.0181    1.0248    0.2666 F   0  0  0  0  0  0  0  0  0  0  0  0
    4.2802    1.8327   -1.6739 F   0  0  0  0  0  0  0  0  0  0  0  0
    2.2545    0.2019   -2.4607 F   0  0  0  0  0  0  0  0  0  0  0  0
   -0.3486   -2.8245   -0.9284 N   0  0  0  0  0  0  0  0  0  0  0  0
    1.7232   -2.2239   -1.0974 N   0  0  0  0  0  0  0  0  0  0  0  0
  2  4  2  0  0  0  0
  2 28  1  0  0  0  0
  3  2  1  0  0  0  0
  4 27  1  0  0  0  0
  5  4  1  0  0  0  0
  6  7  1  0  0  0  0
  6  8  1  0  0  0  0
  8 10  1  0  0  0  0
  8  9  1  0  0  0  0
 11  8  1  0  0  0  0
 12 14  1  0  0  0  0
 12  6  1  0  0  0  0
 13 12  1  0  0  0  0
 15 12  1  0  0  0  0
 16 17  1  0  0  0  0
 17 18  2  0  0  0  0
 17 22  1  0  0  0  0
 18 23  1  0  0  0  0
 19 24  1  0  0  0  0
 19 18  1  0  0  0  0
 20 19  2  0  0  0  0
 21 20  1  0  0  0  0
 21 16  2  0  0  0  0
 25 20  1  0  0  0  0
 26 21  1  0  0  0  0
 27  1  1  0  0  0  0
 27  6  1  0  0  0  0
 28 16  1  0  0  0  0
 28  1  1  0  0  0  0
M  END
