1
 OpenBabel05122313113D

 29 31  0  0  0  0  0  0  0  0999 V2000
   -0.0003    1.9354   -0.5804 C   0  0  0  0  0  2  0  0  0  0  0  0
    0.6825    4.0935   -0.8876 C   0  0  0  0  0  0  0  0  0  0  0  0
    1.4053    4.8988   -1.0418 H   0  0  0  0  0  0  0  0  0  0  0  0
   -0.6836    4.0934   -0.8875 C   0  0  0  0  0  0  0  0  0  0  0  0
   -1.4066    4.8986   -1.0415 H   0  0  0  0  0  0  0  0  0  0  0  0
    2.4540    2.3727   -0.6250 C   0  0  0  0  0  0  0  0  0  0  0  0
    2.9400    1.3390   -1.4420 C   0  0  0  0  0  0  0  0  0  0  0  0
    2.2508    0.8016   -2.1106 H   0  0  0  0  0  0  0  0  0  0  0  0
    4.3002    1.0093   -1.3861 C   0  0  0  0  0  0  0  0  0  0  0  0
    4.6807    0.1933   -2.0177 H   0  0  0  0  0  0  0  0  0  0  0  0
    5.1687    1.7072   -0.5319 C   0  0  0  0  0  0  0  0  0  0  0  0
    6.2369    1.4447   -0.4975 H   0  0  0  0  0  0  0  0  0  0  0  0
    4.6702    2.7299    0.2898 C   0  0  0  0  0  0  0  0  0  0  0  0
    5.3418    3.2687    0.9750 H   0  0  0  0  0  0  0  0  0  0  0  0
    3.3081    3.0628    0.2516 C   0  0  0  0  0  0  0  0  0  0  0  0
    2.8982    3.8427    0.9095 H   0  0  0  0  0  0  0  0  0  0  0  0
   -2.4548    2.3723   -0.6242 C   0  0  0  0  0  0  0  0  0  0  0  0
   -3.3084    3.0616    0.2536 C   0  0  0  0  0  0  0  0  0  0  0  0
   -2.8980    3.8408    0.9121 H   0  0  0  0  0  0  0  0  0  0  0  0
   -4.6704    2.7286    0.2921 C   0  0  0  0  0  0  0  0  0  0  0  0
   -5.3417    3.2668    0.9782 H   0  0  0  0  0  0  0  0  0  0  0  0
   -5.1694    1.7068   -0.5303 C   0  0  0  0  0  0  0  0  0  0  0  0
   -6.2375    1.4442   -0.4956 H   0  0  0  0  0  0  0  0  0  0  0  0
   -4.3013    1.0096   -1.3857 C   0  0  0  0  0  0  0  0  0  0  0  0
   -4.6821    0.1942   -2.0178 H   0  0  0  0  0  0  0  0  0  0  0  0
   -2.9411    1.3394   -1.4420 C   0  0  0  0  0  0  0  0  0  0  0  0
   -2.2522    0.8027   -2.1113 H   0  0  0  0  0  0  0  0  0  0  0  0
    1.0813    2.7688   -0.7108 N   0  0  0  0  0  0  0  0  0  0  0  0
   -1.0821    2.7686   -0.7105 N   0  0  0  0  0  0  0  0  0  0  0  0
  2  4  2  0  0  0  0
  2 28  1  0  0  0  0
  3  2  1  0  0  0  0
  4 29  1  0  0  0  0
  5  4  1  0  0  0  0
  6 15  1  0  0  0  0
  7  9  1  0  0  0  0
  7  6  2  0  0  0  0
  8  7  1  0  0  0  0
  9 11  2  0  0  0  0
 10  9  1  0  0  0  0
 11 12  1  0  0  0  0
 11 13  1  0  0  0  0
 13 14  1  0  0  0  0
 15 13  2  0  0  0  0
 15 16  1  0  0  0  0
 17 18  1  0  0  0  0
 18 20  2  0  0  0  0
 18 19  1  0  0  0  0
 20 21  1  0  0  0  0
 22 23  1  0  0  0  0
 22 20  1  0  0  0  0
 24 22  2  0  0  0  0
 25 24  1  0  0  0  0
 26 24  1  0  0  0  0
 26 17  2  0  0  0  0
 27 26  1  0  0  0  0
 28  6  1  0  0  0  0
 28  1  1  0  0  0  0
 29 17  1  0  0  0  0
 29  1  1  0  0  0  0
M  END
