14
 OpenBabel05122313113D

 51 55  0  0  1  0  0  0  0  0999 V2000
   -3.4386    1.0224   -0.7851 O   0  0  0  0  0  0  0  0  0  0  0  0
   -3.5656   -0.3033   -0.7478 C   0  0  0  0  0  3  0  0  0  0  0  0
   -2.4990   -1.1591   -0.9387 C   0  0  0  0  0  0  0  0  0  0  0  0
   -1.2111   -0.5645   -1.1597 C   0  0  0  0  0  0  0  0  0  0  0  0
   -1.0940    0.8514   -1.1798 C   0  0  0  0  0  0  0  0  0  0  0  0
   -2.2503    1.6299   -0.9571 C   0  0  0  0  0  0  0  0  0  0  0  0
   -2.7414   -2.6220   -0.8994 C   0  0  0  0  0  0  0  0  0  0  0  0
   -3.4713   -3.1856    0.1691 C   0  0  0  0  0  0  0  0  0  0  0  0
   -3.7302   -4.5631    0.1937 C   0  0  0  0  0  0  0  0  0  0  0  0
   -3.2685   -5.3878   -0.8436 C   0  0  0  0  0  0  0  0  0  0  0  0
   -2.5406   -4.8317   -1.9087 C   0  0  0  0  0  0  0  0  0  0  0  0
   -2.2741   -3.4575   -1.9376 C   0  0  0  0  0  0  0  0  0  0  0  0
   -0.0134   -1.4384   -1.1859 C   0  0  1  0  0  3  0  0  0  0  0  0
    0.2666   -2.2047   -0.0143 C   0  0  0  0  0  3  0  0  0  0  0  0
    1.4107   -3.0349    0.0157 C   0  0  0  0  0  0  0  0  0  0  0  0
    2.2516   -3.1260   -1.1055 C   0  0  0  0  0  0  0  0  0  0  0  0
    1.9524   -2.3943   -2.2630 C   0  0  0  0  0  0  0  0  0  0  0  0
    0.8393   -1.5428   -2.3014 C   0  0  0  0  0  0  0  0  0  0  0  0
    0.2326    1.5341   -1.1769 C   0  0  0  0  0  0  0  0  0  0  0  0
    1.0200    1.6748   -2.3351 C   0  0  0  0  0  0  0  0  0  0  0  0
    2.2592    2.3262   -2.2652 C   0  0  0  0  0  0  0  0  0  0  0  0
    2.7319    2.8231   -1.0417 C   0  0  0  0  0  0  0  0  0  0  0  0
    1.9479    2.6935    0.1134 C   0  0  0  0  0  0  0  0  0  0  0  0
    0.6946    2.0618    0.0528 C   0  0  0  0  0  0  0  0  0  0  0  0
   -2.3426    3.0849   -0.8213 C   0  0  0  0  0  0  0  0  0  0  0  0
   -1.5642    3.9642   -1.6109 C   0  0  0  0  0  0  0  0  0  0  0  0
   -1.6968    5.3470   -1.4502 C   0  0  0  0  0  0  0  0  0  0  0  0
   -2.5876    5.8673   -0.4963 C   0  0  0  0  0  0  0  0  0  0  0  0
   -3.3574    4.9989    0.2957 C   0  0  0  0  0  0  0  0  0  0  0  0
   -3.2447    3.6151    0.1336 C   0  0  0  0  0  0  0  0  0  0  0  0
   -4.6028   -0.6215   -0.5786 H   0  0  0  0  0  0  0  0  0  0  0  0
   -3.7723   -2.5442    1.0101 H   0  0  0  0  0  0  0  0  0  0  0  0
   -4.2838   -4.9960    1.0402 H   0  0  0  0  0  0  0  0  0  0  0  0
   -3.4690   -6.4695   -0.8193 H   0  0  0  0  0  0  0  0  0  0  0  0
   -2.1757   -5.4739   -2.7241 H   0  0  0  0  0  0  0  0  0  0  0  0
   -1.7046   -3.0263   -2.7734 H   0  0  0  0  0  0  0  0  0  0  0  0
   -0.4629   -2.2087    0.8134 H   0  0  0  0  0  0  0  0  0  0  0  0
    1.6221   -3.6233    0.9210 H   0  0  0  0  0  0  0  0  0  0  0  0
    3.1541   -3.7521   -1.0661 H   0  0  0  0  0  0  0  0  0  0  0  0
    2.6124   -2.4608   -3.1396 H   0  0  0  0  0  0  0  0  0  0  0  0
    0.6175   -0.9726   -3.2131 H   0  0  0  0  0  0  0  0  0  0  0  0
    0.6526    1.2917   -3.2985 H   0  0  0  0  0  0  0  0  0  0  0  0
    2.8751    2.4211   -3.1715 H   0  0  0  0  0  0  0  0  0  0  0  0
    3.7283    3.2815   -0.9797 H   0  0  0  0  0  0  0  0  0  0  0  0
    2.3179    3.0667    1.0791 H   0  0  0  0  0  0  0  0  0  0  0  0
    0.0549    1.9873    0.9454 H   0  0  0  0  0  0  0  0  0  0  0  0
   -0.8651    3.5633   -2.3558 H   0  0  0  0  0  0  0  0  0  0  0  0
   -1.0953    6.0251   -2.0731 H   0  0  0  0  0  0  0  0  0  0  0  0
   -2.6766    6.9562   -0.3645 H   0  0  0  0  0  0  0  0  0  0  0  0
   -4.0414    5.4037    1.0561 H   0  0  0  0  0  0  0  0  0  0  0  0
   -3.8083    2.9264    0.7775 H   0  0  0  0  0  0  0  0  0  0  0  0
  1  2  1  0  0  0  0
  2 31  1  0  0  0  0
  3  7  1  0  0  0  0
  3  2  1  0  0  0  0
  4  3  2  0  0  0  0
  5 19  1  0  0  0  0
  5  4  1  0  0  0  0
  5  6  2  0  0  0  0
  6 25  1  0  0  0  0
  6  1  1  0  0  0  0
  7  8  1  0  0  0  0
  8  9  2  0  0  0  0
  8 32  1  0  0  0  0
  9 33  1  0  0  0  0
 10 34  1  0  0  0  0
 10  9  1  0  0  0  0
 11 10  2  0  0  0  0
 12 11  1  0  0  0  0
 12  7  2  0  0  0  0
 13  4  1  6  0  0  0
 13 14  1  0  0  0  0
 14 15  1  0  0  0  0
 14 37  1  0  0  0  0
 15 38  1  0  0  0  0
 16 39  1  0  0  0  0
 16 15  2  0  0  0  0
 17 16  1  0  0  0  0
 18 17  2  0  0  0  0
 18 13  1  0  0  0  0
 19 24  1  0  0  0  0
 20 21  1  0  0  0  0
 20 19  2  0  0  0  0
 21 22  2  0  0  0  0
 22 44  1  0  0  0  0
 22 23  1  0  0  0  0
 23 45  1  0  0  0  0
 24 23  2  0  0  0  0
 24 46  1  0  0  0  0
 25 30  1  0  0  0  0
 26 27  1  0  0  0  0
 26 25  2  0  0  0  0
 27 28  2  0  0  0  0
 28 49  1  0  0  0  0
 28 29  1  0  0  0  0
 29 50  1  0  0  0  0
 30 29  2  0  0  0  0
 30 51  1  0  0  0  0
 35 11  1  0  0  0  0
 36 12  1  0  0  0  0
 40 17  1  0  0  0  0
 41 18  1  0  0  0  0
 42 20  1  0  0  0  0
 43 21  1  0  0  0  0
 47 26  1  0  0  0  0
 48 27  1  0  0  0  0
M  END
