1
 OpenBabel05122313113D

 32 33  0  0  0  0  0  0  0  0999 V2000
    1.5097   -1.6695   -0.0057 C   0  0  0  0  0  1  0  0  0  0  0  0
    2.4853   -0.9797   -0.0294 N   0  0  0  0  0  2  0  0  0  0  0  0
    3.7292   -0.4268    0.0014 C   0  0  0  0  0  0  0  0  0  0  0  0
    5.2753    1.4482   -0.2019 C   0  0  0  0  0  0  0  0  0  0  0  0
    3.9552    0.9149   -0.2438 C   0  0  0  0  0  0  0  0  0  0  0  0
    3.1029    1.5714   -0.4755 H   0  0  0  0  0  0  0  0  0  0  0  0
    5.6125    2.8045   -0.4439 C   0  0  0  0  0  0  0  0  0  0  0  0
    4.8051    3.5157   -0.6762 H   0  0  0  0  0  0  0  0  0  0  0  0
    6.9237    3.2532   -0.3864 C   0  0  0  0  0  0  0  0  0  0  0  0
    7.1238    4.3165   -0.5646 H   0  0  0  0  0  0  0  0  0  0  0  0
    8.0013    2.3558   -0.0811 C   0  0  0  0  0  0  0  0  0  0  0  0
    7.6729    0.9939    0.1620 C   0  0  0  0  0  0  0  0  0  0  0  0
    8.4332    0.2365    0.3835 H   0  0  0  0  0  0  0  0  0  0  0  0
    6.3476    0.5636    0.1028 C   0  0  0  0  0  0  0  0  0  0  0  0
    6.1138   -0.7582    0.3425 O   0  0  0  0  0  0  0  0  0  0  0  0
    4.8433   -1.3497    0.3145 C   0  0  0  0  0  0  0  0  0  0  0  0
    4.7559   -2.5332    0.5424 O   0  0  0  0  0  0  0  0  0  0  0  0
    9.3044    2.7969   -0.0226 N   0  0  0  0  0  0  0  0  0  0  0  0
   10.3933    1.9112    0.3802 C   0  0  0  0  0  0  0  0  0  0  0  0
   10.0334    1.2332    1.1810 H   0  0  0  0  0  0  0  0  0  0  0  0
   11.1750    2.5402    0.8552 H   0  0  0  0  0  0  0  0  0  0  0  0
   10.9961    1.1096   -0.7766 C   0  0  0  0  0  0  0  0  0  0  0  0
   11.8271    0.4698   -0.4176 H   0  0  0  0  0  0  0  0  0  0  0  0
   11.3984    1.7827   -1.5607 H   0  0  0  0  0  0  0  0  0  0  0  0
   10.2378    0.4553   -1.2503 H   0  0  0  0  0  0  0  0  0  0  0  0
    9.6719    4.1671   -0.3663 C   0  0  0  0  0  0  0  0  0  0  0  0
    9.0400    4.5160   -1.2085 H   0  0  0  0  0  0  0  0  0  0  0  0
   10.7069    4.1426   -0.7671 H   0  0  0  0  0  0  0  0  0  0  0  0
    9.5899    5.1414    0.8119 C   0  0  0  0  0  0  0  0  0  0  0  0
    9.9010    6.1594    0.5017 H   0  0  0  0  0  0  0  0  0  0  0  0
   10.2529    4.8206    1.6408 H   0  0  0  0  0  0  0  0  0  0  0  0
    8.5581    5.2015    1.2116 H   0  0  0  0  0  0  0  0  0  0  0  0
  2  1  1  0  0  0  0
  2  3  1  0  0  0  0
  3 16  1  0  0  0  0
  4 14  1  0  0  0  0
  5  4  1  0  0  0  0
  5  3  2  0  0  0  0
  6  5  1  0  0  0  0
  7  9  1  0  0  0  0
  7  4  2  0  0  0  0
  8  7  1  0  0  0  0
  9 11  2  0  0  0  0
 10  9  1  0  0  0  0
 11 18  1  0  0  0  0
 11 12  1  0  0  0  0
 12 13  1  0  0  0  0
 14 12  2  0  0  0  0
 14 15  1  0  0  0  0
 16 15  1  0  0  0  0
 16 17  2  0  0  0  0
 18 19  1  0  0  0  0
 19 21  1  0  0  0  0
 19 20  1  0  0  0  0
 22 23  1  0  0  0  0
 22 19  1  0  0  0  0
 24 22  1  0  0  0  0
 25 22  1  0  0  0  0
 26 18  1  0  0  0  0
 26 29  1  0  0  0  0
 27 26  1  0  0  0  0
 28 26  1  0  0  0  0
 29 32  1  0  0  0  0
 29 31  1  0  0  0  0
 30 29  1  0  0  0  0
M  END
