2
 OpenBabel05122313113D

 45 47  0  0  0  0  0  0  0  0999 V2000
    3.2213    0.0161    0.2185 P   0  0  0  0  0  4  0  0  0  0  0  0
   -0.3548   -0.2241    0.6272 C   0  0  0  0  0  3  0  0  0  0  0  0
    0.7486   -0.1050    1.1728 C   0  0  0  0  0  0  0  0  0  0  0  0
    2.0812    0.0255    1.7569 C   0  0  0  0  0  0  0  0  0  0  0  0
    2.2158    1.3624    2.5174 C   0  0  0  0  0  0  0  0  0  0  0  0
    2.4230   -1.1859    2.6500 C   0  0  0  0  0  0  0  0  0  0  0  0
    3.0685    1.6162   -0.6257 C   0  0  0  0  0  0  0  0  0  0  0  0
    1.8123    2.0750   -1.0837 C   0  0  0  0  0  0  0  0  0  0  0  0
    1.7178    3.3225   -1.7147 C   0  0  0  0  0  0  0  0  0  0  0  0
    2.8590    4.1229   -1.8820 C   0  0  0  0  0  0  0  0  0  0  0  0
    4.1055    3.6702   -1.4214 C   0  0  0  0  0  0  0  0  0  0  0  0
    4.2178    2.4199   -0.7968 C   0  0  0  0  0  0  0  0  0  0  0  0
    4.9866   -0.2321    0.5912 C   0  0  0  0  0  0  0  0  0  0  0  0
    5.5642    0.1991    1.8043 C   0  0  0  0  0  0  0  0  0  0  0  0
    6.9432    0.0554    2.0144 C   0  0  0  0  0  0  0  0  0  0  0  0
    7.7545   -0.5067    1.0165 C   0  0  0  0  0  0  0  0  0  0  0  0
    7.1865   -0.9239   -0.1980 C   0  0  0  0  0  0  0  0  0  0  0  0
    5.8086   -0.7889   -0.4154 C   0  0  0  0  0  0  0  0  0  0  0  0
    2.6994   -1.3744   -0.8265 C   0  0  0  0  0  0  0  0  0  0  0  0
    1.7930   -1.1888   -1.8896 C   0  0  0  0  0  0  0  0  0  0  0  0
    1.3398   -2.2995   -2.6151 C   0  0  0  0  0  0  0  0  0  0  0  0
    1.7803   -3.5904   -2.2865 C   0  0  0  0  0  0  0  0  0  0  0  0
    2.6860   -3.7761   -1.2286 C   0  0  0  0  0  0  0  0  0  0  0  0
    3.1487   -2.6742   -0.4971 C   0  0  0  0  0  0  0  0  0  0  0  0
    1.4604    1.3712    3.3278 H   0  0  0  0  0  0  0  0  0  0  0  0
    3.2133    1.4877    2.9804 H   0  0  0  0  0  0  0  0  0  0  0  0
    2.0179    2.2275    1.8573 H   0  0  0  0  0  0  0  0  0  0  0  0
    1.7137   -1.1952    3.5013 H   0  0  0  0  0  0  0  0  0  0  0  0
    2.2991   -2.1388    2.1017 H   0  0  0  0  0  0  0  0  0  0  0  0
    3.4526   -1.1305    3.0532 H   0  0  0  0  0  0  0  0  0  0  0  0
    0.9037    1.4668   -0.9702 H   0  0  0  0  0  0  0  0  0  0  0  0
    0.7366    3.6545   -2.0863 H   0  0  0  0  0  0  0  0  0  0  0  0
    2.7793    5.1014   -2.3790 H   0  0  0  0  0  0  0  0  0  0  0  0
    5.0034    4.2921   -1.5521 H   0  0  0  0  0  0  0  0  0  0  0  0
    5.1996    2.0728   -0.4447 H   0  0  0  0  0  0  0  0  0  0  0  0
    4.9472    0.6551    2.5898 H   0  0  0  0  0  0  0  0  0  0  0  0
    7.3850    0.3881    2.9651 H   0  0  0  0  0  0  0  0  0  0  0  0
    8.8360   -0.6177    1.1850 H   0  0  0  0  0  0  0  0  0  0  0  0
    7.8201   -1.3584   -0.9852 H   0  0  0  0  0  0  0  0  0  0  0  0
    5.3713   -1.1160   -1.3701 H   0  0  0  0  0  0  0  0  0  0  0  0
    1.4105   -0.1942   -2.1525 H   0  0  0  0  0  0  0  0  0  0  0  0
    0.6267   -2.1419   -3.4376 H   0  0  0  0  0  0  0  0  0  0  0  0
    1.4204   -4.4583   -2.8591 H   0  0  0  0  0  0  0  0  0  0  0  0
    3.0394   -4.7858   -0.9722 H   0  0  0  0  0  0  0  0  0  0  0  0
    3.8687   -2.8273    0.3205 H   0  0  0  0  0  0  0  0  0  0  0  0
  1 13  1  0  0  0  0
  1  4  1  0  0  0  0
  2  3  3  0  0  0  0
  3  4  1  0  0  0  0
  4  5  1  0  0  0  0
  4  6  1  0  0  0  0
  5 26  1  0  0  0  0
  5 25  1  0  0  0  0
  6 30  1  0  0  0  0
  6 28  1  0  0  0  0
  7  1  1  0  0  0  0
  8 31  1  0  0  0  0
  8  7  2  0  0  0  0
  9  8  1  0  0  0  0
 10  9  2  0  0  0  0
 10 11  1  0  0  0  0
 11 12  2  0  0  0  0
 12  7  1  0  0  0  0
 12 35  1  0  0  0  0
 13 14  1  0  0  0  0
 14 15  2  0  0  0  0
 14 36  1  0  0  0  0
 15 37  1  0  0  0  0
 16 38  1  0  0  0  0
 16 15  1  0  0  0  0
 17 16  2  0  0  0  0
 18 17  1  0  0  0  0
 18 13  2  0  0  0  0
 19 24  1  0  0  0  0
 19  1  1  0  0  0  0
 20 19  2  0  0  0  0
 21 22  2  0  0  0  0
 21 20  1  0  0  0  0
 22 23  1  0  0  0  0
 23 44  1  0  0  0  0
 23 24  2  0  0  0  0
 24 45  1  0  0  0  0
 27  5  1  0  0  0  0
 29  6  1  0  0  0  0
 32  9  1  0  0  0  0
 33 10  1  0  0  0  0
 34 11  1  0  0  0  0
 39 17  1  0  0  0  0
 40 18  1  0  0  0  0
 41 20  1  0  0  0  0
 42 21  1  0  0  0  0
 43 22  1  0  0  0  0
M  END
