24
 OpenBabel05122313113D

 27 28  0  0  0  0  0  0  0  0999 V2000
    2.7597   -0.5992   -2.2208 F   0  0  0  0  0  0  0  0  0  0  0  0
    5.3560   -1.1834   -2.6502 F   0  0  0  0  0  0  0  0  0  0  0  0
    7.1214   -1.2644   -0.5475 F   0  0  0  0  0  0  0  0  0  0  0  0
    6.2334   -0.7588    1.9966 F   0  0  0  0  0  0  0  0  0  0  0  0
    3.6521   -0.1852    2.4532 F   0  0  0  0  0  0  0  0  0  0  0  0
    2.0411    2.1931    2.1694 F   0  0  0  0  0  0  0  0  0  0  0  0
    1.3970    4.7914    1.7774 F   0  0  0  0  0  0  0  0  0  0  0  0
    0.1454    5.5656   -0.5391 F   0  0  0  0  0  0  0  0  0  0  0  0
   -0.4398    3.7011   -2.4639 F   0  0  0  0  0  0  0  0  0  0  0  0
    0.1958    1.1146   -2.0951 F   0  0  0  0  0  0  0  0  0  0  0  0
    1.4984   -0.0260    0.3564 B   0  0  0  0  0  0  0  0  0  0  0  0
    3.0726   -0.3698    0.1366 C   0  0  0  0  0  0  0  0  0  0  0  0
    3.5833   -0.6273   -1.1471 C   0  0  0  0  0  0  0  0  0  0  0  0
    4.9287   -0.9345   -1.4048 C   0  0  0  0  0  0  0  0  0  0  0  0
    5.8328   -0.9784   -0.3314 C   0  0  0  0  0  0  0  0  0  0  0  0
    5.3741   -0.7200    0.9698 C   0  0  0  0  0  0  0  0  0  0  0  0
    4.0152   -0.4203    1.1792 C   0  0  0  0  0  0  0  0  0  0  0  0
    1.1508    1.5340    0.0630 C   0  0  0  0  0  0  0  0  0  0  0  0
    1.4380    2.5264    1.0151 C   0  0  0  0  0  0  0  0  0  0  0  0
    1.1138    3.8822    0.8356 C   0  0  0  0  0  0  0  0  0  0  0  0
    0.4786    4.2828   -0.3516 C   0  0  0  0  0  0  0  0  0  0  0  0
    0.1913    3.3277   -1.3383 C   0  0  0  0  0  0  0  0  0  0  0  0
    0.5353    1.9849   -1.1147 C   0  0  0  0  0  0  0  0  0  0  0  0
    0.7783   -0.6908    1.6679 C   0  0  0  0  0  3  0  0  0  0  0  0
    0.9507   -0.6108   -0.6904 H   0  0  0  0  0  0  0  0  0  0  0  0
    0.1176    0.0096    2.2152 H   0  0  0  0  0  0  0  0  0  0  0  0
    1.4730   -1.2046    2.3529 H   0  0  0  0  0  0  0  0  0  0  0  0
  1 13  1  0  0  0  0
  2 14  1  0  0  0  0
  3 15  1  0  0  0  0
  8 21  1  0  0  0  0
  9 22  1  0  0  0  0
 10 23  1  0  0  0  0
 11 24  1  0  0  0  0
 12 11  1  0  0  0  0
 12 17  1  0  0  0  0
 13 12  2  0  0  0  0
 14 13  1  0  0  0  0
 14 15  2  0  0  0  0
 15 16  1  0  0  0  0
 16 17  2  0  0  0  0
 16  4  1  0  0  0  0
 17  5  1  0  0  0  0
 18 11  1  0  0  0  0
 18 19  1  0  0  0  0
 19  6  1  0  0  0  0
 20 19  2  0  0  0  0
 20  7  1  0  0  0  0
 21 20  1  0  0  0  0
 22 23  1  0  0  0  0
 22 21  2  0  0  0  0
 23 18  2  0  0  0  0
 24 26  1  0  0  0  0
 24 27  1  0  0  0  0
 25 11  1  0  0  0  0
M  END
