5
 OpenBabel05122313113D

 39 40  0  0  0  0  0  0  0  0999 V2000
   -2.6128   -1.3408   -0.1070 N   0  0  0  0  0  0  0  0  0  0  0  0
   -2.0730   -2.1935    0.0788 H   0  0  0  0  0  0  0  0  0  0  0  0
   -2.5623    0.9497    0.0282 N   0  0  0  0  0  0  0  0  0  0  0  0
   -3.5918    0.9120   -0.0253 H   0  0  0  0  0  0  0  0  0  0  0  0
   -1.8817   -0.2082   -0.0266 C   0  0  0  0  0  2  0  0  0  0  0  0
   -4.0445   -1.4012   -0.0917 C   0  0  0  0  0  0  0  0  0  0  0  0
   -4.7481   -1.1355   -1.2935 C   0  0  0  0  0  0  0  0  0  0  0  0
   -6.1555   -1.1536   -1.2475 C   0  0  0  0  0  0  0  0  0  0  0  0
   -6.7225   -0.9509   -2.1693 H   0  0  0  0  0  0  0  0  0  0  0  0
   -6.8328   -1.4389   -0.0537 C   0  0  0  0  0  0  0  0  0  0  0  0
   -7.9333   -1.4498   -0.0378 H   0  0  0  0  0  0  0  0  0  0  0  0
   -6.1155   -1.7147    1.1182 C   0  0  0  0  0  0  0  0  0  0  0  0
   -6.6513   -1.9419    2.0529 H   0  0  0  0  0  0  0  0  0  0  0  0
   -4.7073   -1.6984    1.1246 C   0  0  0  0  0  0  0  0  0  0  0  0
   -4.0031   -0.8733   -2.5766 C   0  0  0  0  0  0  0  0  0  0  0  0
   -4.7030   -0.7276   -3.4206 H   0  0  0  0  0  0  0  0  0  0  0  0
   -3.3261   -1.7166   -2.8229 H   0  0  0  0  0  0  0  0  0  0  0  0
   -3.3520    0.0212   -2.5078 H   0  0  0  0  0  0  0  0  0  0  0  0
   -3.9187   -1.9998    2.3714 C   0  0  0  0  0  0  0  0  0  0  0  0
   -3.4317   -2.9965    2.3107 H   0  0  0  0  0  0  0  0  0  0  0  0
   -4.5696   -1.9992    3.2660 H   0  0  0  0  0  0  0  0  0  0  0  0
   -3.0892   -1.2806    2.5262 H   0  0  0  0  0  0  0  0  0  0  0  0
   -1.9713    2.2409    0.2319 C   0  0  0  0  0  0  0  0  0  0  0  0
   -1.4081    2.5553    1.4943 C   0  0  0  0  0  0  0  0  0  0  0  0
   -0.8213    3.8270    1.6515 C   0  0  0  0  0  0  0  0  0  0  0  0
   -0.3775    4.0884    2.6250 H   0  0  0  0  0  0  0  0  0  0  0  0
   -0.8234    4.7608    0.6076 C   0  0  0  0  0  0  0  0  0  0  0  0
   -0.3613    5.7494    0.7522 H   0  0  0  0  0  0  0  0  0  0  0  0
   -1.4397    4.4471   -0.6106 C   0  0  0  0  0  0  0  0  0  0  0  0
   -1.4621    5.1865   -1.4258 H   0  0  0  0  0  0  0  0  0  0  0  0
   -2.0308    3.1878   -0.8186 C   0  0  0  0  0  0  0  0  0  0  0  0
   -1.4583    1.5909    2.6486 C   0  0  0  0  0  0  0  0  0  0  0  0
   -2.4716    1.1544    2.7632 H   0  0  0  0  0  0  0  0  0  0  0  0
   -1.1900    2.0978    3.5949 H   0  0  0  0  0  0  0  0  0  0  0  0
   -0.7704    0.7292    2.5100 H   0  0  0  0  0  0  0  0  0  0  0  0
   -2.6833    2.8440   -2.1294 C   0  0  0  0  0  0  0  0  0  0  0  0
   -2.6938    3.7167   -2.8090 H   0  0  0  0  0  0  0  0  0  0  0  0
   -3.7315    2.5018   -1.9994 H   0  0  0  0  0  0  0  0  0  0  0  0
   -2.1176    2.0238   -2.6216 H   0  0  0  0  0  0  0  0  0  0  0  0
  1  6  1  0  0  0  0
  1  5  1  0  0  0  0
  1  2  1  0  0  0  0
  3 23  1  0  0  0  0
  4  3  1  0  0  0  0
  5  3  1  0  0  0  0
  6 14  1  0  0  0  0
  7  8  1  0  0  0  0
  7  6  2  0  0  0  0
  8 10  2  0  0  0  0
  9  8  1  0  0  0  0
 10 11  1  0  0  0  0
 10 12  1  0  0  0  0
 12 14  2  0  0  0  0
 12 13  1  0  0  0  0
 14 19  1  0  0  0  0
 15 18  1  0  0  0  0
 15  7  1  0  0  0  0
 16 15  1  0  0  0  0
 17 15  1  0  0  0  0
 19 22  1  0  0  0  0
 19 21  1  0  0  0  0
 20 19  1  0  0  0  0
 23 24  1  0  0  0  0
 24 25  2  0  0  0  0
 24 32  1  0  0  0  0
 25 26  1  0  0  0  0
 27 28  1  0  0  0  0
 27 25  1  0  0  0  0
 29 27  2  0  0  0  0
 30 29  1  0  0  0  0
 31 29  1  0  0  0  0
 31 23  2  0  0  0  0
 32 33  1  0  0  0  0
 32 34  1  0  0  0  0
 35 32  1  0  0  0  0
 36 38  1  0  0  0  0
 36 31  1  0  0  0  0
 37 36  1  0  0  0  0
 39 36  1  0  0  0  0
M  END
