4
 OpenBabel05122313113D

 44 44  0  0  1  0  0  0  0  0999 V2000
   -0.5036    1.4811    1.1658 P   0  0  0  0  0  0  0  0  0  0  0  0
   -0.5442    0.7272   -1.7407 P   0  0  0  0  0  0  0  0  0  0  0  0
   -1.4404    1.2293   -0.3098 C   0  0  0  0  0  0  0  0  0  0  0  0
    1.0724    0.6005   -0.9183 C   0  0  2  0  0  3  0  0  0  0  0  0
    1.1040    0.9932    0.4590 C   0  0  0  0  0  0  0  0  0  0  0  0
   -2.9316    1.5935   -0.4069 C   0  0  0  0  0  0  0  0  0  0  0  0
   -2.9957    2.9501   -1.1533 C   0  0  0  0  0  0  0  0  0  0  0  0
   -4.0492    3.2887   -1.2331 H   0  0  0  0  0  0  0  0  0  0  0  0
   -2.5798    2.8648   -2.1777 H   0  0  0  0  0  0  0  0  0  0  0  0
   -2.4206    3.7286   -0.6125 H   0  0  0  0  0  0  0  0  0  0  0  0
   -3.5728    1.7624    0.9829 C   0  0  0  0  0  0  0  0  0  0  0  0
   -3.5228    0.8241    1.5686 H   0  0  0  0  0  0  0  0  0  0  0  0
   -4.6395    2.0436    0.8721 H   0  0  0  0  0  0  0  0  0  0  0  0
   -3.0737    2.5631    1.5663 H   0  0  0  0  0  0  0  0  0  0  0  0
   -3.7138    0.5358   -1.2140 C   0  0  0  0  0  0  0  0  0  0  0  0
   -3.7114   -0.4427   -0.6950 H   0  0  0  0  0  0  0  0  0  0  0  0
   -3.2808    0.3922   -2.2250 H   0  0  0  0  0  0  0  0  0  0  0  0
   -4.7680    0.8563   -1.3383 H   0  0  0  0  0  0  0  0  0  0  0  0
    2.2191    0.1497   -1.8768 C   0  0  0  0  0  0  0  0  0  0  0  0
    1.6764   -0.1462   -3.2976 C   0  0  0  0  0  0  0  0  0  0  0  0
    2.5183   -0.4900   -3.9320 H   0  0  0  0  0  0  0  0  0  0  0  0
    1.2401    0.7516   -3.7798 H   0  0  0  0  0  0  0  0  0  0  0  0
    0.9117   -0.9483   -3.2935 H   0  0  0  0  0  0  0  0  0  0  0  0
    2.8953   -1.1623   -1.4145 C   0  0  0  0  0  0  0  0  0  0  0  0
    3.7553   -1.3868   -2.0781 H   0  0  0  0  0  0  0  0  0  0  0  0
    2.1852   -2.0087   -1.4963 H   0  0  0  0  0  0  0  0  0  0  0  0
    3.2619   -1.1301   -0.3786 H   0  0  0  0  0  0  0  0  0  0  0  0
    3.2380    1.2993   -2.0496 C   0  0  0  0  0  0  0  0  0  0  0  0
    3.9889    1.0140   -2.8144 H   0  0  0  0  0  0  0  0  0  0  0  0
    3.7846    1.5475   -1.1246 H   0  0  0  0  0  0  0  0  0  0  0  0
    2.7290    2.2195   -2.4015 H   0  0  0  0  0  0  0  0  0  0  0  0
    2.2807    1.3397    1.4306 C   0  0  0  0  0  0  0  0  0  0  0  0
    3.5678    0.4969    1.3484 C   0  0  0  0  0  0  0  0  0  0  0  0
    4.2770    0.8745    2.1122 H   0  0  0  0  0  0  0  0  0  0  0  0
    4.0817    0.5589    0.3758 H   0  0  0  0  0  0  0  0  0  0  0  0
    3.3662   -0.5656    1.5794 H   0  0  0  0  0  0  0  0  0  0  0  0
    2.6186    2.8268    1.1423 C   0  0  0  0  0  0  0  0  0  0  0  0
    3.4259    3.1661    1.8235 H   0  0  0  0  0  0  0  0  0  0  0  0
    1.7323    3.4712    1.3113 H   0  0  0  0  0  0  0  0  0  0  0  0
    2.9558    2.9842    0.1010 H   0  0  0  0  0  0  0  0  0  0  0  0
    1.8255    1.2469    2.9100 C   0  0  0  0  0  0  0  0  0  0  0  0
    2.6788    1.5143    3.5647 H   0  0  0  0  0  0  0  0  0  0  0  0
    1.5023    0.2201    3.1698 H   0  0  0  0  0  0  0  0  0  0  0  0
    0.9997    1.9439    3.1517 H   0  0  0  0  0  0  0  0  0  0  0  0
  2  4  1  0  0  0  0
  2  3  2  0  0  0  0
  3  1  1  0  0  0  0
  4 19  1  6  0  0  0
  4  5  1  0  0  0  0
  5  1  2  0  0  0  0
  5 32  1  0  0  0  0
  6  3  1  0  0  0  0
  6 11  1  0  0  0  0
  7 10  1  0  0  0  0
  7  6  1  0  0  0  0
  8  7  1  0  0  0  0
  9  7  1  0  0  0  0
 11 14  1  0  0  0  0
 11 12  1  0  0  0  0
 13 11  1  0  0  0  0
 15 16  1  0  0  0  0
 15  6  1  0  0  0  0
 17 15  1  0  0  0  0
 18 15  1  0  0  0  0
 19 24  1  0  0  0  0
 20 23  1  0  0  0  0
 20 19  1  0  0  0  0
 21 20  1  0  0  0  0
 22 20  1  0  0  0  0
 24 27  1  0  0  0  0
 25 24  1  0  0  0  0
 26 24  1  0  0  0  0
 28 19  1  0  0  0  0
 28 30  1  0  0  0  0
 29 28  1  0  0  0  0
 31 28  1  0  0  0  0
 32 41  1  0  0  0  0
 33 32  1  0  0  0  0
 33 36  1  0  0  0  0
 33 34  1  0  0  0  0
 35 33  1  0  0  0  0
 37 39  1  0  0  0  0
 37 32  1  0  0  0  0
 37 38  1  0  0  0  0
 40 37  1  0  0  0  0
 41 44  1  0  0  0  0
 41 43  1  0  0  0  0
 41 42  1  0  0  0  0
M  END
