2
 OpenBabel05122313113D

 31 32  0  0  1  0  0  0  0  0999 V2000
   -0.0295    0.4504   -1.9837 O   0  0  0  0  0  0  0  0  0  0  0  0
    0.2600    0.6187   -0.6993 C   0  0  0  0  0  2  0  0  0  0  0  0
   -0.8013    1.5036   -0.0938 C   0  0  2  0  0  0  0  0  0  0  0  0
   -1.4017    2.2456   -1.3025 C   0  0  0  0  0  0  0  0  0  0  0  0
   -2.4711    2.4893   -1.1617 H   0  0  0  0  0  0  0  0  0  0  0  0
   -0.8367    3.1829   -1.4850 H   0  0  0  0  0  0  0  0  0  0  0  0
   -1.1896    1.2445   -2.4244 C   0  0  0  0  0  0  0  0  0  0  0  0
   -0.9219    1.6730   -3.4084 H   0  0  0  0  0  0  0  0  0  0  0  0
   -2.0374    0.5420   -2.5420 H   0  0  0  0  0  0  0  0  0  0  0  0
   -0.5937    2.3557    1.1800 C   0  0  0  0  0  0  0  0  0  0  0  0
   -0.4302    3.4368    1.0048 H   0  0  0  0  0  0  0  0  0  0  0  0
    0.2323    1.9712    1.8042 H   0  0  0  0  0  0  0  0  0  0  0  0
   -1.9810    1.9098    1.7039 C   0  0  0  0  0  0  0  0  0  0  0  0
   -2.0853    1.6736    2.7808 H   0  0  0  0  0  0  0  0  0  0  0  0
   -2.7898    2.6050    1.4051 H   0  0  0  0  0  0  0  0  0  0  0  0
   -1.9244    0.7143    0.7301 C   0  0  1  0  0  0  0  0  0  0  0  0
   -1.4597   -0.1648    1.2163 H   0  0  0  0  0  0  0  0  0  0  0  0
   -3.0851    0.3853    0.0339 O   0  0  0  0  0  0  0  0  0  0  0  0
   -3.5477   -0.9980    0.0659 C   0  0  0  0  0  0  0  0  0  0  0  0
   -2.4713   -1.9509   -0.4696 C   0  0  0  0  0  0  0  0  0  0  0  0
   -1.5847   -1.9895    0.1917 H   0  0  0  0  0  0  0  0  0  0  0  0
   -2.1317   -1.6477   -1.4795 H   0  0  0  0  0  0  0  0  0  0  0  0
   -2.8694   -2.9823   -0.5379 H   0  0  0  0  0  0  0  0  0  0  0  0
   -3.9484   -1.3681    1.5009 C   0  0  0  0  0  0  0  0  0  0  0  0
   -3.0744   -1.3499    2.1830 H   0  0  0  0  0  0  0  0  0  0  0  0
   -4.3759   -2.3898    1.5370 H   0  0  0  0  0  0  0  0  0  0  0  0
   -4.7054   -0.6559    1.8844 H   0  0  0  0  0  0  0  0  0  0  0  0
   -4.7695   -0.9863   -0.8543 C   0  0  0  0  0  0  0  0  0  0  0  0
   -4.4752   -0.7087   -1.8861 H   0  0  0  0  0  0  0  0  0  0  0  0
   -5.5115   -0.2466   -0.4953 H   0  0  0  0  0  0  0  0  0  0  0  0
   -5.2482   -1.9844   -0.8838 H   0  0  0  0  0  0  0  0  0  0  0  0
  1  2  1  0  0  0  0
  3  2  1  6  0  0  0
  3 16  1  0  0  0  0
  3 10  1  0  0  0  0
  4  5  1  0  0  0  0
  4  3  1  0  0  0  0
  6  4  1  0  0  0  0
  7  1  1  0  0  0  0
  7  4  1  0  0  0  0
  8  7  1  0  0  0  0
  9  7  1  0  0  0  0
 10 13  1  0  0  0  0
 10 12  1  0  0  0  0
 11 10  1  0  0  0  0
 13 14  1  0  0  0  0
 15 13  1  0  0  0  0
 16 17  1  1  0  0  0
 16 13  1  0  0  0  0
 18 19  1  0  0  0  0
 18 16  1  0  0  0  0
 19 24  1  0  0  0  0
 20 19  1  0  0  0  0
 20 21  1  0  0  0  0
 22 20  1  0  0  0  0
 23 20  1  0  0  0  0
 24 26  1  0  0  0  0
 24 27  1  0  0  0  0
 24 25  1  0  0  0  0
 28 30  1  0  0  0  0
 28 19  1  0  0  0  0
 29 28  1  0  0  0  0
 31 28  1  0  0  0  0
M  END
