5
 OpenBabel05122313113D

 20 20  0  0  0  0  0  0  0  0999 V2000
   -4.5845    1.6217   -0.7654 O   0  0  0  0  0  0  0  0  0  0  0  0
   -2.8169    2.7116    0.1361 O   0  0  0  0  0  0  0  0  0  0  0  0
   -1.4424   -1.4583    0.6441 O   0  0  0  0  0  0  0  0  0  0  0  0
   -1.7019   -3.2175    1.9022 O   0  0  0  0  0  0  0  0  0  0  0  0
   -1.6764   -0.2353   -0.0102 C   0  0  0  0  0  2  0  0  0  0  0  0
   -2.9656    0.3059    0.3182 C   0  0  0  0  0  0  0  0  0  0  0  0
   -3.8710   -0.3989    1.1185 C   0  0  0  0  0  0  0  0  0  0  0  0
   -4.8682    0.0321    1.2933 H   0  0  0  0  0  0  0  0  0  0  0  0
   -3.5402   -1.6229    1.7295 C   0  0  0  0  0  0  0  0  0  0  0  0
   -4.2427   -2.1570    2.3782 H   0  0  0  0  0  0  0  0  0  0  0  0
   -2.2699   -2.1079    1.4605 C   0  0  0  0  0  0  0  0  0  0  0  0
   -3.4011    1.6714   -0.1171 C   0  0  0  0  0  0  0  0  0  0  0  0
   -2.3955   -3.9909    2.8894 C   0  0  0  0  0  0  0  0  0  0  0  0
   -2.5833   -3.3796    3.7954 H   0  0  0  0  0  0  0  0  0  0  0  0
   -1.7247   -4.8309    3.1388 H   0  0  0  0  0  0  0  0  0  0  0  0
   -3.3504   -4.3845    2.4849 H   0  0  0  0  0  0  0  0  0  0  0  0
   -5.1522    2.8962   -1.1279 C   0  0  0  0  0  0  0  0  0  0  0  0
   -5.2624    3.5418   -0.2350 H   0  0  0  0  0  0  0  0  0  0  0  0
   -6.1355    2.6729   -1.5758 H   0  0  0  0  0  0  0  0  0  0  0  0
   -4.5017    3.4143   -1.8605 H   0  0  0  0  0  0  0  0  0  0  0  0
  1 12  1  0  0  0  0
  3 11  1  0  0  0  0
  4 13  1  0  0  0  0
  5  6  1  0  0  0  0
  5  3  1  0  0  0  0
  6  7  2  0  0  0  0
  7  8  1  0  0  0  0
  7  9  1  0  0  0  0
  9 10  1  0  0  0  0
 11  9  2  0  0  0  0
 11  4  1  0  0  0  0
 12  2  2  0  0  0  0
 12  6  1  0  0  0  0
 13 15  1  0  0  0  0
 13 14  1  0  0  0  0
 16 13  1  0  0  0  0
 17  1  1  0  0  0  0
 17 18  1  0  0  0  0
 19 17  1  0  0  0  0
 20 17  1  0  0  0  0
M  END
