3
 OpenBabel05122313113D

 23 23  0  0  0  0  0  0  0  0999 V2000
    0.9342    1.3197   -2.5748 N   0  0  0  0  0  0  0  0  0  0  0  0
    0.2618    3.1572   -1.5627 N   0  0  0  0  0  0  0  0  0  0  0  0
    0.3558    1.8052   -1.4459 C   0  0  0  0  0  2  0  0  0  0  0  0
    1.4338    2.3959   -3.4359 C   0  0  0  0  0  0  0  0  0  0  0  0
    0.6770    3.6115   -2.8965 C   0  0  0  0  0  0  0  0  0  0  0  0
   -0.4848    4.0737   -0.7165 C   0  0  0  0  0  0  0  0  0  0  0  0
    0.3620    5.2093   -0.1461 C   0  0  0  0  0  0  0  0  0  0  0  0
    1.1749   -0.0750   -2.9328 C   0  0  0  0  0  0  0  0  0  0  0  0
    2.6542   -0.4340   -3.0371 C   0  0  0  0  0  0  0  0  0  0  0  0
    2.5348    2.5015   -3.3196 H   0  0  0  0  0  0  0  0  0  0  0  0
    1.2153    2.1772   -4.5008 H   0  0  0  0  0  0  0  0  0  0  0  0
   -0.2246    3.8607   -3.5041 H   0  0  0  0  0  0  0  0  0  0  0  0
    1.3096    4.5178   -2.8334 H   0  0  0  0  0  0  0  0  0  0  0  0
   -0.9256    3.4789    0.1007 H   0  0  0  0  0  0  0  0  0  0  0  0
   -1.3362    4.4781   -1.3120 H   0  0  0  0  0  0  0  0  0  0  0  0
   -0.2691    5.8677    0.4834 H   0  0  0  0  0  0  0  0  0  0  0  0
    1.1777    4.8066    0.4842 H   0  0  0  0  0  0  0  0  0  0  0  0
    0.8059    5.8408   -0.9422 H   0  0  0  0  0  0  0  0  0  0  0  0
    0.6500   -0.2684   -3.8958 H   0  0  0  0  0  0  0  0  0  0  0  0
    0.6783   -0.7243   -2.1864 H   0  0  0  0  0  0  0  0  0  0  0  0
    2.7589   -1.5199   -3.2262 H   0  0  0  0  0  0  0  0  0  0  0  0
    3.1514    0.1013   -3.8718 H   0  0  0  0  0  0  0  0  0  0  0  0
    3.1819   -0.1915   -2.0964 H   0  0  0  0  0  0  0  0  0  0  0  0
  1  3  1  0  0  0  0
  2  3  1  0  0  0  0
  2  6  1  0  0  0  0
  4 10  1  0  0  0  0
  4  5  1  0  0  0  0
  4  1  1  0  0  0  0
  5 13  1  0  0  0  0
  5  2  1  0  0  0  0
  6  7  1  0  0  0  0
  6 14  1  0  0  0  0
  7 16  1  0  0  0  0
  7 17  1  0  0  0  0
  8  1  1  0  0  0  0
  8 20  1  0  0  0  0
  9  8  1  0  0  0  0
  9 23  1  0  0  0  0
 11  4  1  0  0  0  0
 12  5  1  0  0  0  0
 15  6  1  0  0  0  0
 18  7  1  0  0  0  0
 19  8  1  0  0  0  0
 21  9  1  0  0  0  0
 22  9  1  0  0  0  0
M  END
