1
 OpenBabel05122313113D

 18 18  0  0  0  0  0  0  0  0999 V2000
    0.5970   -1.6807   -1.1995 C   0  0  0  0  0  2  0  0  0  0  0  0
    1.7295   -2.1144   -0.5889 C   0  0  0  0  0  3  0  0  0  0  0  0
    3.0867   -2.2302   -1.2522 C   0  0  0  0  0  0  0  0  0  0  0  0
    4.0638    0.1125   -1.0934 C   0  0  0  0  0  0  0  0  0  0  0  0
    4.8886    1.0662   -0.4798 C   0  0  0  0  0  0  0  0  0  0  0  0
    5.7148    0.7022    0.5966 C   0  0  0  0  0  0  0  0  0  0  0  0
    5.7135   -0.6272    1.0478 C   0  0  0  0  0  0  0  0  0  0  0  0
    4.8918   -1.5812    0.4255 C   0  0  0  0  0  0  0  0  0  0  0  0
    4.0546   -1.2276   -0.6522 C   0  0  0  0  0  0  0  0  0  0  0  0
    0.7149   -1.4544   -2.2792 H   0  0  0  0  0  0  0  0  0  0  0  0
    1.7369   -2.3339    0.4963 H   0  0  0  0  0  0  0  0  0  0  0  0
    3.5036   -3.2545   -1.1260 H   0  0  0  0  0  0  0  0  0  0  0  0
    2.9797   -2.0501   -2.3421 H   0  0  0  0  0  0  0  0  0  0  0  0
    3.3987    0.4143   -1.9184 H   0  0  0  0  0  0  0  0  0  0  0  0
    4.8799    2.1047   -0.8439 H   0  0  0  0  0  0  0  0  0  0  0  0
    6.3601    1.4518    1.0797 H   0  0  0  0  0  0  0  0  0  0  0  0
    6.3612   -0.9259    1.8869 H   0  0  0  0  0  0  0  0  0  0  0  0
    4.8966   -2.6243    0.7814 H   0  0  0  0  0  0  0  0  0  0  0  0
  1  2  1  0  0  0  0
  2 11  1  0  0  0  0
  3 12  1  0  0  0  0
  3  9  1  0  0  0  0
  3  2  1  0  0  0  0
  4  9  2  0  0  0  0
  4  5  1  0  0  0  0
  5  6  2  0  0  0  0
  6  7  1  0  0  0  0
  6 16  1  0  0  0  0
  7 17  1  0  0  0  0
  8 18  1  0  0  0  0
  8  7  2  0  0  0  0
  9  8  1  0  0  0  0
 10  1  1  0  0  0  0
 13  3  1  0  0  0  0
 14  4  1  0  0  0  0
 15  5  1  0  0  0  0
M  END
