1
 OpenBabel05122313113D

 22 22  0  0  0  0  0  0  0  0999 V2000
    0.9279   -1.3233   -1.1440 C   0  0  0  0  0  3  0  0  0  0  0  0
    2.2749   -1.5124   -1.2083 C   0  0  0  0  0  0  0  0  0  0  0  0
    3.2075   -1.8286   -0.0667 C   0  0  0  0  0  0  0  0  0  0  0  0
    0.2131   -0.9921   -2.2977 O   0  0  0  0  0  0  0  0  0  0  0  0
    0.9159   -0.6646   -3.4854 C   0  0  0  0  0  0  0  0  0  0  0  0
    4.0903    0.1537    1.2847 C   0  0  0  0  0  0  0  0  0  0  0  0
    4.9618    1.2432    1.4485 C   0  0  0  0  0  0  0  0  0  0  0  0
    5.9604    1.5021    0.4965 C   0  0  0  0  0  0  0  0  0  0  0  0
    6.0855    0.6548   -0.6177 C   0  0  0  0  0  0  0  0  0  0  0  0
    5.2126   -0.4310   -0.7776 C   0  0  0  0  0  0  0  0  0  0  0  0
    4.1967   -0.6955    0.1655 C   0  0  0  0  0  0  0  0  0  0  0  0
    0.1543   -0.3428   -4.2225 H   0  0  0  0  0  0  0  0  0  0  0  0
    1.4724   -1.5370   -3.8972 H   0  0  0  0  0  0  0  0  0  0  0  0
    1.6308    0.1702   -3.3130 H   0  0  0  0  0  0  0  0  0  0  0  0
    2.7876   -1.3537   -2.1726 H   0  0  0  0  0  0  0  0  0  0  0  0
    2.6325   -2.0275    0.8574 H   0  0  0  0  0  0  0  0  0  0  0  0
    3.7817   -2.7552   -0.2979 H   0  0  0  0  0  0  0  0  0  0  0  0
    3.3080   -0.0405    2.0349 H   0  0  0  0  0  0  0  0  0  0  0  0
    4.8572    1.8951    2.3298 H   0  0  0  0  0  0  0  0  0  0  0  0
    6.6435    2.3557    0.6244 H   0  0  0  0  0  0  0  0  0  0  0  0
    6.8716    0.8407   -1.3662 H   0  0  0  0  0  0  0  0  0  0  0  0
    5.3188   -1.0894   -1.6553 H   0  0  0  0  0  0  0  0  0  0  0  0
  2  1  2  0  0  0  0
  2  3  1  0  0  0  0
  3 11  1  0  0  0  0
  3 16  1  0  0  0  0
  4  1  1  0  0  0  0
  5 14  1  0  0  0  0
  5  4  1  0  0  0  0
  6  7  1  0  0  0  0
  6 18  1  0  0  0  0
  7 19  1  0  0  0  0
  8 20  1  0  0  0  0
  8  7  2  0  0  0  0
  9  8  1  0  0  0  0
 10  9  2  0  0  0  0
 10 11  1  0  0  0  0
 11  6  2  0  0  0  0
 12  5  1  0  0  0  0
 13  5  1  0  0  0  0
 15  2  1  0  0  0  0
 17  3  1  0  0  0  0
 21  9  1  0  0  0  0
 22 10  1  0  0  0  0
M  END
