1
 OpenBabel05122313113D

 18 17  0  0  0  0  0  0  0  0999 V2000
    6.6722   -0.7359   -0.0843 C   0  0  0  0  0  1  0  0  0  0  0  0
    9.2601   -0.9454   -0.0457 C   0  0  0  0  0  0  0  0  0  0  0  0
    9.6024   -1.3413   -1.0266 H   0  0  0  0  0  0  0  0  0  0  0  0
    9.5479   -1.6972    0.7211 H   0  0  0  0  0  0  0  0  0  0  0  0
    9.9221    0.4081    0.2505 C   0  0  0  0  0  0  0  0  0  0  0  0
    9.5983    1.1410   -0.5187 H   0  0  0  0  0  0  0  0  0  0  0  0
    9.5442    0.7859    1.2242 H   0  0  0  0  0  0  0  0  0  0  0  0
   11.4485    0.3060    0.2771 C   0  0  0  0  0  0  0  0  0  0  0  0
   11.8122   -0.0890   -0.6985 H   0  0  0  0  0  0  0  0  0  0  0  0
   11.7583   -0.4436    1.0401 H   0  0  0  0  0  0  0  0  0  0  0  0
   12.1383    1.6422    0.5709 C   0  0  0  0  0  0  0  0  0  0  0  0
   11.7698    2.0346    1.5444 H   0  0  0  0  0  0  0  0  0  0  0  0
   11.8234    2.3886   -0.1914 H   0  0  0  0  0  0  0  0  0  0  0  0
   13.6634    1.5410    0.5974 C   0  0  0  0  0  0  0  0  0  0  0  0
   14.1329    2.5215    0.8118 H   0  0  0  0  0  0  0  0  0  0  0  0
   14.0618    1.1855   -0.3758 H   0  0  0  0  0  0  0  0  0  0  0  0
   14.0077    0.8283    1.3755 H   0  0  0  0  0  0  0  0  0  0  0  0
    7.8455   -0.8635   -0.0733 N   0  0  0  0  0  2  0  0  0  0  0  0
  1 18  1  0  0  0  0
  2  5  1  0  0  0  0
  2  4  1  0  0  0  0
  3  2  1  0  0  0  0
  5  8  1  0  0  0  0
  5  7  1  0  0  0  0
  6  5  1  0  0  0  0
  8 11  1  0  0  0  0
  8 10  1  0  0  0  0
  9  8  1  0  0  0  0
 11 14  1  0  0  0  0
 11 12  1  0  0  0  0
 13 11  1  0  0  0  0
 14 15  1  0  0  0  0
 14 17  1  0  0  0  0
 16 14  1  0  0  0  0
 18  2  1  0  0  0  0
M  END
