4
 OpenBabel05122313113D

 35 35  0  0  1  0  0  0  0  0999 V2000
    0.9178   -0.2506    0.8156 C   0  0  1  0  0  0  0  0  0  0  0  0
    0.8817    0.4546    1.6692 H   0  0  0  0  0  0  0  0  0  0  0  0
   -0.0195    0.2361   -0.2728 C   0  0  2  0  0  3  0  0  0  0  0  0
   -0.2741   -0.6324   -1.3976 C   0  0  0  0  0  3  0  0  0  0  0  0
   -0.3570   -0.2429   -2.4218 H   0  0  0  0  0  0  0  0  0  0  0  0
   -0.5117   -1.9865   -1.0407 C   0  0  0  0  0  3  0  0  0  0  0  0
   -0.8014   -2.7352   -1.7933 H   0  0  0  0  0  0  0  0  0  0  0  0
   -0.5282   -2.2515    0.3749 C   0  0  0  0  0  3  0  0  0  0  0  0
   -0.8967   -3.2400    0.6940 H   0  0  0  0  0  0  0  0  0  0  0  0
    0.5499   -1.6944    1.2835 C   0  0  1  0  0  0  0  0  0  0  0  0
    0.1311   -1.6136    2.3142 H   0  0  0  0  0  0  0  0  0  0  0  0
   -0.1334    1.7074   -0.5160 C   0  0  0  0  0  0  0  0  0  0  0  0
   -0.1748    3.8337    0.5452 C   0  0  0  0  0  0  0  0  0  0  0  0
    0.2364    4.1932   -0.4196 H   0  0  0  0  0  0  0  0  0  0  0  0
    0.4231    4.2531    1.3776 H   0  0  0  0  0  0  0  0  0  0  0  0
   -1.6494    4.1803    0.6761 C   0  0  0  0  0  0  0  0  0  0  0  0
   -1.7845    5.2806    0.6861 H   0  0  0  0  0  0  0  0  0  0  0  0
   -2.0691    3.7694    1.6162 H   0  0  0  0  0  0  0  0  0  0  0  0
   -2.2226    3.7711   -0.1788 H   0  0  0  0  0  0  0  0  0  0  0  0
    4.0346    1.8750   -0.6589 C   0  0  0  0  0  0  0  0  0  0  0  0
    3.9490    2.9756   -0.7203 H   0  0  0  0  0  0  0  0  0  0  0  0
    4.1651    1.4555   -1.6777 H   0  0  0  0  0  0  0  0  0  0  0  0
    4.9110    1.6066   -0.0332 H   0  0  0  0  0  0  0  0  0  0  0  0
    3.3227   -2.1754   -1.3690 C   0  0  0  0  0  0  0  0  0  0  0  0
    3.4304   -2.3421   -2.4571 H   0  0  0  0  0  0  0  0  0  0  0  0
    2.6269   -2.9162   -0.9266 H   0  0  0  0  0  0  0  0  0  0  0  0
    4.3093   -2.2749   -0.8730 H   0  0  0  0  0  0  0  0  0  0  0  0
   -0.3896    2.2112   -1.5981 O   0  0  0  0  0  0  0  0  0  0  0  0
    0.0275    2.4071    0.6322 O   0  0  0  0  0  0  0  0  0  0  0  0
    1.6271   -2.6215    1.2705 O   0  0  0  0  0  0  0  0  0  0  0  0
    2.4270   -2.1714    1.6456 H   0  0  0  0  0  0  0  0  0  0  0  0
    2.6776   -0.1864    0.2860 P   0  0  0  0  0  0  0  0  0  0  0  0
    2.8082   -0.8423   -1.2106 O   0  0  0  0  0  0  0  0  0  0  0  0
    2.8190    1.3971   -0.0674 O   0  0  0  0  0  0  0  0  0  0  0  0
    3.6385   -0.7528    1.3083 O   0  0  0  0  0  0  0  0  0  0  0  0
  1 10  1  0  0  0  0
  1  2  1  1  0  0  0
  3 12  1  6  0  0  0
  3  1  1  0  0  0  0
  4  6  1  0  0  0  0
  4  3  1  0  0  0  0
  5  4  1  0  0  0  0
  6  8  1  0  0  0  0
  7  6  1  0  0  0  0
  8  9  1  0  0  0  0
  8 10  1  0  0  0  0
 10 11  1  1  0  0  0
 12 29  1  0  0  0  0
 13 29  1  0  0  0  0
 13 16  1  0  0  0  0
 13 15  1  0  0  0  0
 14 13  1  0  0  0  0
 16 17  1  0  0  0  0
 16 18  1  0  0  0  0
 19 16  1  0  0  0  0
 20 34  1  0  0  0  0
 20 23  1  0  0  0  0
 21 20  1  0  0  0  0
 22 20  1  0  0  0  0
 24 33  1  0  0  0  0
 24 26  1  0  0  0  0
 24 27  1  0  0  0  0
 25 24  1  0  0  0  0
 28 12  2  0  0  0  0
 30 10  1  0  0  0  0
 30 31  1  0  0  0  0
 32  1  1  0  0  0  0
 32 35  2  0  0  0  0
 33 32  1  0  0  0  0
 34 32  1  0  0  0  0
M  END
