3
 OpenBabel05122313113D

  8  8  0  0  0  0  0  0  0  0999 V2000
   -1.7375   -0.0008    1.0840 C   0  0  0  0  0  0  0  0  0  0  0  0
   -1.7608   -1.0322    0.0580 C   0  0  0  0  0  3  0  0  0  0  0  0
   -1.7847    0.0007   -0.9803 C   0  0  0  0  0  3  0  0  0  0  0  0
   -1.7912   -0.0017    2.1793 H   0  0  0  0  0  0  0  0  0  0  0  0
   -1.8622   -2.1236    0.0653 H   0  0  0  0  0  0  0  0  0  0  0  0
   -1.9346    0.0015   -2.0657 H   0  0  0  0  0  0  0  0  0  0  0  0
   -1.7608    1.0320    0.0595 C   0  0  0  0  0  0  0  0  0  0  0  0
   -1.8622    2.1235    0.0685 H   0  0  0  0  0  0  0  0  0  0  0  0
  1  4  1  0  0  0  0
  2  5  1  0  0  0  0
  2  1  1  0  0  0  0
  3  2  1  0  0  0  0
  3  7  1  0  0  0  0
  6  3  1  0  0  0  0
  7  8  1  0  0  0  0
  7  1  2  0  0  0  0
M  END
