3
 OpenBabel05122313113D

 24 25  0  0  0  0  0  0  0  0999 V2000
    2.2835   -0.5760    1.4693 N   0  0  0  0  0  0  0  0  0  0  0  0
    0.9503   -1.9690    2.5199 N   0  0  0  0  0  0  0  0  0  0  0  0
    1.1167   -1.2590    1.3769 C   0  0  0  0  0  2  0  0  0  0  0  0
    2.9037   -0.7476    2.7950 C   0  0  0  0  0  0  0  0  0  0  0  0
    2.1763   -1.9978    3.3228 C   0  0  0  0  0  0  0  0  0  0  0  0
    2.8422    0.2437    0.4525 C   0  0  0  0  0  0  0  0  0  0  0  0
    2.9338   -0.2422   -0.8670 C   0  0  0  0  0  0  0  0  0  0  0  0
    3.4585    0.5815   -1.8698 C   0  0  0  0  0  0  0  0  0  0  0  0
    3.9125    1.8883   -1.5903 C   0  0  0  0  0  0  0  0  0  0  0  0
    3.8517    2.3347   -0.2551 C   0  0  0  0  0  0  0  0  0  0  0  0
    3.3238    1.5268    0.7611 C   0  0  0  0  0  0  0  0  0  0  0  0
    4.4127    2.7873   -2.6918 C   0  0  0  0  0  0  0  0  0  0  0  0
    0.3107   -2.7664    2.4789 H   0  0  0  0  0  0  0  0  0  0  0  0
    3.9986   -0.8766    2.7021 H   0  0  0  0  0  0  0  0  0  0  0  0
    2.6977    0.1450    3.4266 H   0  0  0  0  0  0  0  0  0  0  0  0
    1.9631   -1.9407    4.4078 H   0  0  0  0  0  0  0  0  0  0  0  0
    2.7532   -2.9279    3.1197 H   0  0  0  0  0  0  0  0  0  0  0  0
    2.5908   -1.2631   -1.0929 H   0  0  0  0  0  0  0  0  0  0  0  0
    3.5180    0.1942   -2.8991 H   0  0  0  0  0  0  0  0  0  0  0  0
    4.2087    3.3462   -0.0050 H   0  0  0  0  0  0  0  0  0  0  0  0
    3.2521    1.9103    1.7888 H   0  0  0  0  0  0  0  0  0  0  0  0
    5.1247    3.5466   -2.3131 H   0  0  0  0  0  0  0  0  0  0  0  0
    3.5680    3.3364   -3.1623 H   0  0  0  0  0  0  0  0  0  0  0  0
    4.9129    2.2111   -3.4951 H   0  0  0  0  0  0  0  0  0  0  0  0
  1  4  1  0  0  0  0
  2  5  1  0  0  0  0
  3  1  1  0  0  0  0
  3  2  1  0  0  0  0
  4  5  1  0  0  0  0
  4 15  1  0  0  0  0
  5 16  1  0  0  0  0
  6 11  1  0  0  0  0
  6  1  1  0  0  0  0
  7  6  2  0  0  0  0
  8  9  2  0  0  0  0
  8  7  1  0  0  0  0
  9 10  1  0  0  0  0
 10 20  1  0  0  0  0
 10 11  2  0  0  0  0
 11 21  1  0  0  0  0
 12 22  1  0  0  0  0
 12  9  1  0  0  0  0
 13  2  1  0  0  0  0
 14  4  1  0  0  0  0
 17  5  1  0  0  0  0
 18  7  1  0  0  0  0
 19  8  1  0  0  0  0
 23 12  1  0  0  0  0
 24 12  1  0  0  0  0
M  END
