5
 OpenBabel05122313113D

 14 13  0  0  0  0  0  0  0  0999 V2000
    5.8263    2.1467    0.9346 F   0  0  0  0  0  0  0  0  0  0  0  0
    5.8389    2.0299   -1.2431 F   0  0  0  0  0  0  0  0  0  0  0  0
    7.0142    0.6082   -0.0680 F   0  0  0  0  0  0  0  0  0  0  0  0
    3.4843    1.0298   -0.1106 O   0  0  0  0  0  0  0  0  0  0  0  0
    1.1192    1.0843   -0.0869 C   0  0  0  0  0  3  0  0  0  0  0  0
    1.1431    1.7587   -0.9680 H   0  0  0  0  0  0  0  0  0  0  0  0
    1.1028    1.7030    0.8324 H   0  0  0  0  0  0  0  0  0  0  0  0
    2.3385    0.1814   -0.0848 C   0  0  0  0  0  0  0  0  0  0  0  0
    2.3507   -0.4556    0.8303 H   0  0  0  0  0  0  0  0  0  0  0  0
    2.3439   -0.5037   -0.9653 H   0  0  0  0  0  0  0  0  0  0  0  0
    4.6827    0.3136   -0.0659 C   0  0  0  0  0  0  0  0  0  0  0  0
    4.7990   -0.3863   -0.9303 H   0  0  0  0  0  0  0  0  0  0  0  0
    4.7881   -0.2928    0.8675 H   0  0  0  0  0  0  0  0  0  0  0  0
    5.8447    1.2941   -0.1113 C   0  0  0  0  0  0  0  0  0  0  0  0
  2 14  1  0  0  0  0
  4  8  1  0  0  0  0
  4 11  1  0  0  0  0
  5  8  1  0  0  0  0
  5  7  1  0  0  0  0
  6  5  1  0  0  0  0
  8  9  1  0  0  0  0
 10  8  1  0  0  0  0
 11 13  1  0  0  0  0
 12 11  1  0  0  0  0
 14  3  1  0  0  0  0
 14 11  1  0  0  0  0
 14  1  1  0  0  0  0
M  END
