5
 OpenBabel05122313113D

 46 50  0  0  1  0  0  0  0  0999 V2000
   -2.1154   -0.4537   -1.9203 N   0  0  0  0  0  0  0  0  0  0  0  0
   -2.3899   -0.2442    0.2415 N   0  0  0  0  0  0  0  0  0  0  0  0
    0.4266    2.5568    1.7224 N   0  0  0  0  0  0  0  0  0  0  0  0
   -1.1410    2.1432    0.1194 O   0  0  0  0  0  0  0  0  0  0  0  0
   -1.4879   -0.6335   -0.7176 C   0  0  0  0  0  2  0  0  0  0  0  0
   -3.3984    0.0616   -1.7379 C   0  0  0  0  0  0  0  0  0  0  0  0
   -3.5762    0.2025   -0.3419 C   0  0  0  0  0  0  0  0  0  0  0  0
   -4.7595    0.7169    0.2015 C   0  0  0  0  0  0  0  0  0  0  0  0
   -4.8830    0.8323    1.2872 H   0  0  0  0  0  0  0  0  0  0  0  0
   -5.7680    1.0776   -0.7049 C   0  0  0  0  0  0  0  0  0  0  0  0
   -6.7140    1.4865   -0.3204 H   0  0  0  0  0  0  0  0  0  0  0  0
   -5.5965    0.9299   -2.0999 C   0  0  0  0  0  0  0  0  0  0  0  0
   -6.4127    1.2236   -2.7762 H   0  0  0  0  0  0  0  0  0  0  0  0
   -4.4073    0.4195   -2.6431 C   0  0  0  0  0  0  0  0  0  0  0  0
   -4.2734    0.3090   -3.7282 H   0  0  0  0  0  0  0  0  0  0  0  0
   -2.0920   -0.1815    1.6406 C   0  0  0  0  0  0  0  0  0  0  0  0
   -2.6698   -1.1421    2.4854 C   0  0  0  0  0  0  0  0  0  0  0  0
   -3.3337   -1.9009    2.0469 H   0  0  0  0  0  0  0  0  0  0  0  0
   -2.3726   -1.1442    3.8539 C   0  0  0  0  0  0  0  0  0  0  0  0
   -2.8222   -1.9037    4.5103 H   0  0  0  0  0  0  0  0  0  0  0  0
   -1.4810   -0.1910    4.3735 C   0  0  0  0  0  0  0  0  0  0  0  0
   -1.2273   -0.1980    5.4438 H   0  0  0  0  0  0  0  0  0  0  0  0
   -0.9097    0.7682    3.5322 C   0  0  0  0  0  0  0  0  0  0  0  0
   -0.2061    1.5226    3.9118 H   0  0  0  0  0  0  0  0  0  0  0  0
   -1.2164    0.8045    2.1550 C   0  0  0  0  0  0  0  0  0  0  0  0
   -0.5884    1.8658    1.3399 C   0  0  0  0  0  0  0  0  0  0  0  0
   -0.3318    3.1951   -0.4554 C   0  0  0  0  0  0  0  0  0  0  0  0
   -0.9874    4.0655   -0.6599 H   0  0  0  0  0  0  0  0  0  0  0  0
    0.0974    2.8240   -1.4077 H   0  0  0  0  0  0  0  0  0  0  0  0
    0.7653    3.4741    0.6287 C   0  0  2  0  0  0  0  0  0  0  0  0
    0.6907    4.5182    1.0035 H   0  0  0  0  0  0  0  0  0  0  0  0
    2.1753    3.2570    0.1064 C   0  0  0  0  0  0  0  0  0  0  0  0
    2.9496    4.3470   -0.3322 C   0  0  0  0  0  0  0  0  0  0  0  0
    2.5523    5.3708   -0.2362 H   0  0  0  0  0  0  0  0  0  0  0  0
    4.2228    4.1388   -0.8856 C   0  0  0  0  0  0  0  0  0  0  0  0
    4.8204    4.9997   -1.2228 H   0  0  0  0  0  0  0  0  0  0  0  0
    4.7345    2.8363   -1.0013 C   0  0  0  0  0  0  0  0  0  0  0  0
    5.7337    2.6727   -1.4334 H   0  0  0  0  0  0  0  0  0  0  0  0
    3.9698    1.7447   -0.5584 C   0  0  0  0  0  0  0  0  0  0  0  0
    4.3513    0.7146   -0.6361 H   0  0  0  0  0  0  0  0  0  0  0  0
    2.6990    1.9551   -0.0055 C   0  0  0  0  0  0  0  0  0  0  0  0
    2.1166    1.0905    0.3497 H   0  0  0  0  0  0  0  0  0  0  0  0
   -1.5288   -0.7504   -3.2145 C   0  0  0  0  0  0  0  0  0  0  0  0
   -0.5069   -1.1386   -3.0475 H   0  0  0  0  0  0  0  0  0  0  0  0
   -1.4775    0.1686   -3.8323 H   0  0  0  0  0  0  0  0  0  0  0  0
   -2.1316   -1.5134   -3.7466 H   0  0  0  0  0  0  0  0  0  0  0  0
  1  6  1  0  0  0  0
  1  5  1  0  0  0  0
  2 16  1  0  0  0  0
  4 26  1  0  0  0  0
  5  2  1  0  0  0  0
  6  7  1  0  0  0  0
  7  8  2  0  0  0  0
  7  2  1  0  0  0  0
  8  9  1  0  0  0  0
 10 11  1  0  0  0  0
 10  8  1  0  0  0  0
 12 10  2  0  0  0  0
 13 12  1  0  0  0  0
 14 12  1  0  0  0  0
 14  6  2  0  0  0  0
 15 14  1  0  0  0  0
 16 25  2  0  0  0  0
 16 17  1  0  0  0  0
 17 19  2  0  0  0  0
 18 17  1  0  0  0  0
 19 21  1  0  0  0  0
 19 20  1  0  0  0  0
 21 22  1  0  0  0  0
 23 24  1  0  0  0  0
 23 21  2  0  0  0  0
 25 23  1  0  0  0  0
 26  3  2  0  0  0  0
 26 25  1  0  0  0  0
 27  4  1  0  0  0  0
 27 30  1  0  0  0  0
 28 27  1  0  0  0  0
 29 27  1  0  0  0  0
 30 31  1  1  0  0  0
 30  3  1  0  0  0  0
 32 30  1  0  0  0  0
 33 34  1  0  0  0  0
 33 32  2  0  0  0  0
 35 33  1  0  0  0  0
 36 35  1  0  0  0  0
 37 35  2  0  0  0  0
 37 39  1  0  0  0  0
 38 37  1  0  0  0  0
 39 41  2  0  0  0  0
 40 39  1  0  0  0  0
 41 32  1  0  0  0  0
 41 42  1  0  0  0  0
 43 44  1  0  0  0  0
 43  1  1  0  0  0  0
 45 43  1  0  0  0  0
 46 43  1  0  0  0  0
M  END
