6
 OpenBabel05122313113D

 34 35  0  0  1  0  0  0  0  0999 V2000
    1.2942   -1.3844   -0.7038 C   0  0  2  0  0  3  0  0  0  0  0  0
    1.3817   -0.7452    0.5528 C   0  0  0  0  0  3  0  0  0  0  0  0
    1.6316   -1.5275    1.8452 C   0  0  0  0  0  0  0  0  0  0  0  0
    0.3450   -1.8397    2.6389 C   0  0  0  0  0  0  0  0  0  0  0  0
   -0.8758   -1.8619    1.7429 C   0  0  0  0  0  3  0  0  0  0  0  0
   -0.9362   -2.6626    0.5817 C   0  0  0  0  0  3  0  0  0  0  0  0
    0.1997   -3.5726    0.1358 C   0  0  0  0  0  0  0  0  0  0  0  0
    1.1809   -2.8988   -0.8398 C   0  0  0  0  0  0  0  0  0  0  0  0
    1.8383   -0.7617   -1.9295 C   0  0  0  0  0  0  0  0  0  0  0  0
    2.9575   -0.0009   -2.0581 C   0  0  0  0  0  0  0  0  0  0  0  0
    3.9528    0.3538   -1.0286 C   0  0  0  0  0  0  0  0  0  0  0  0
    4.4159   -0.5831   -0.0738 C   0  0  0  0  0  0  0  0  0  0  0  0
    5.3639   -0.2194    0.8904 C   0  0  0  0  0  0  0  0  0  0  0  0
    5.8791    1.0880    0.9211 C   0  0  0  0  0  0  0  0  0  0  0  0
    5.4494    2.0220   -0.0347 C   0  0  0  0  0  0  0  0  0  0  0  0
    4.5053    1.6552   -1.0042 C   0  0  0  0  0  0  0  0  0  0  0  0
    1.7794    0.2805    0.5286 H   0  0  0  0  0  0  0  0  0  0  0  0
    2.3519   -0.9633    2.4745 H   0  0  0  0  0  0  0  0  0  0  0  0
    2.1614   -2.4681    1.5924 H   0  0  0  0  0  0  0  0  0  0  0  0
    0.4352   -2.8212    3.1583 H   0  0  0  0  0  0  0  0  0  0  0  0
    0.1876   -1.0946    3.4419 H   0  0  0  0  0  0  0  0  0  0  0  0
   -1.8303   -1.6061    2.2348 H   0  0  0  0  0  0  0  0  0  0  0  0
   -1.9297   -2.9817    0.2405 H   0  0  0  0  0  0  0  0  0  0  0  0
   -0.2340   -4.4638   -0.3575 H   0  0  0  0  0  0  0  0  0  0  0  0
    0.7340   -3.9534    1.0316 H   0  0  0  0  0  0  0  0  0  0  0  0
    2.2031   -3.3335   -0.7418 H   0  0  0  0  0  0  0  0  0  0  0  0
    0.8552   -3.1046   -1.8771 H   0  0  0  0  0  0  0  0  0  0  0  0
    1.2616   -0.9976   -2.8415 H   0  0  0  0  0  0  0  0  0  0  0  0
    3.1553    0.4244   -3.0590 H   0  0  0  0  0  0  0  0  0  0  0  0
    4.0331   -1.6135   -0.1069 H   0  0  0  0  0  0  0  0  0  0  0  0
    5.7135   -0.9666    1.6196 H   0  0  0  0  0  0  0  0  0  0  0  0
    6.6244    1.3727    1.6792 H   0  0  0  0  0  0  0  0  0  0  0  0
    5.8555    3.0451   -0.0276 H   0  0  0  0  0  0  0  0  0  0  0  0
    4.1699    2.3922   -1.7507 H   0  0  0  0  0  0  0  0  0  0  0  0
  1  9  1  6  0  0  0
  1  2  1  0  0  0  0
  2  3  1  0  0  0  0
  3 18  1  0  0  0  0
  3  4  1  0  0  0  0
  4 20  1  0  0  0  0
  4 21  1  0  0  0  0
  5 22  1  0  0  0  0
  5  4  1  0  0  0  0
  6  5  1  0  0  0  0
  7  6  1  0  0  0  0
  7 25  1  0  0  0  0
  8 26  1  0  0  0  0
  8  1  1  0  0  0  0
  8  7  1  0  0  0  0
 10  9  2  0  0  0  0
 10 11  1  0  0  0  0
 11 16  2  0  0  0  0
 11 12  1  0  0  0  0
 12 13  2  0  0  0  0
 13 14  1  0  0  0  0
 13 31  1  0  0  0  0
 14 32  1  0  0  0  0
 15 33  1  0  0  0  0
 15 14  2  0  0  0  0
 16 15  1  0  0  0  0
 17  2  1  0  0  0  0
 19  3  1  0  0  0  0
 23  6  1  0  0  0  0
 24  7  1  0  0  0  0
 27  8  1  0  0  0  0
 28  9  1  0  0  0  0
 29 10  1  0  0  0  0
 30 12  1  0  0  0  0
 34 16  1  0  0  0  0
M  END
