2
 OpenBabel05122313113D

 31 32  0  0  0  0  0  0  0  0999 V2000
    1.7794    2.0988    0.0338 N   0  0  0  0  0  0  0  0  0  0  0  0
    0.9314    1.0152    0.0193 C   0  0  0  0  0  2  0  0  0  0  0  0
    3.2329    2.0338   -0.0076 C   0  0  0  0  0  0  0  0  0  0  0  0
    3.5358    1.0052    0.2571 H   0  0  0  0  0  0  0  0  0  0  0  0
    3.6597    2.7568    0.7132 H   0  0  0  0  0  0  0  0  0  0  0  0
    3.6023    2.2601   -1.0279 H   0  0  0  0  0  0  0  0  0  0  0  0
    1.0747    3.2953    0.0485 C   0  0  0  0  0  0  0  0  0  0  0  0
    1.5767    4.2670    0.0600 H   0  0  0  0  0  0  0  0  0  0  0  0
   -0.2536    2.9705    0.0484 C   0  0  0  0  0  0  0  0  0  0  0  0
   -1.1550    3.5891    0.0631 H   0  0  0  0  0  0  0  0  0  0  0  0
   -0.3211    1.5802    0.0309 N   0  0  0  0  0  0  0  0  0  0  0  0
   -1.5681    0.8673    0.0101 C   0  0  0  0  0  0  0  0  0  0  0  0
   -2.1712    0.5158    1.2363 C   0  0  0  0  0  0  0  0  0  0  0  0
   -3.3934   -0.1745    1.1824 C   0  0  0  0  0  0  0  0  0  0  0  0
   -3.8758   -0.4697    2.1278 H   0  0  0  0  0  0  0  0  0  0  0  0
   -4.0061   -0.5098   -0.0393 C   0  0  0  0  0  0  0  0  0  0  0  0
   -3.3745   -0.1224   -1.2357 C   0  0  0  0  0  0  0  0  0  0  0  0
   -3.8403   -0.3788   -2.2005 H   0  0  0  0  0  0  0  0  0  0  0  0
   -2.1512    0.5670   -1.2396 C   0  0  0  0  0  0  0  0  0  0  0  0
   -1.4482    0.9220   -2.5226 C   0  0  0  0  0  0  0  0  0  0  0  0
   -0.5005    0.3507   -2.6176 H   0  0  0  0  0  0  0  0  0  0  0  0
   -1.1765    1.9968   -2.5657 H   0  0  0  0  0  0  0  0  0  0  0  0
   -2.0787    0.6887   -3.4007 H   0  0  0  0  0  0  0  0  0  0  0  0
   -5.2853   -1.3060   -0.0670 C   0  0  0  0  0  0  0  0  0  0  0  0
   -5.8979   -1.0683   -0.9587 H   0  0  0  0  0  0  0  0  0  0  0  0
   -5.8998   -1.1284    0.8372 H   0  0  0  0  0  0  0  0  0  0  0  0
   -5.0617   -2.3939   -0.1036 H   0  0  0  0  0  0  0  0  0  0  0  0
   -1.4992    0.8293    2.5464 C   0  0  0  0  0  0  0  0  0  0  0  0
   -2.1537    0.5738    3.4005 H   0  0  0  0  0  0  0  0  0  0  0  0
   -1.2265    1.9016    2.6275 H   0  0  0  0  0  0  0  0  0  0  0  0
   -0.5559    0.2541    2.6537 H   0  0  0  0  0  0  0  0  0  0  0  0
  1  7  1  0  0  0  0
  2 11  1  0  0  0  0
  2  1  1  0  0  0  0
  3  1  1  0  0  0  0
  3  4  1  0  0  0  0
  3  5  1  0  0  0  0
  6  3  1  0  0  0  0
  7  8  1  0  0  0  0
  9  7  2  0  0  0  0
  9 10  1  0  0  0  0
 11  9  1  0  0  0  0
 12 11  1  0  0  0  0
 12 13  1  0  0  0  0
 13 28  1  0  0  0  0
 14 13  2  0  0  0  0
 14 15  1  0  0  0  0
 16 14  1  0  0  0  0
 17 16  2  0  0  0  0
 18 17  1  0  0  0  0
 19 17  1  0  0  0  0
 19 12  2  0  0  0  0
 20 19  1  0  0  0  0
 21 20  1  0  0  0  0
 22 20  1  0  0  0  0
 23 20  1  0  0  0  0
 24 16  1  0  0  0  0
 24 26  1  0  0  0  0
 25 24  1  0  0  0  0
 27 24  1  0  0  0  0
 28 30  1  0  0  0  0
 28 31  1  0  0  0  0
 28 29  1  0  0  0  0
M  END
