1
 OpenBabel05122313113D

 14 13  0  0  0  0  0  0  0  0999 V2000
   -1.0707   -1.9777   -1.3598 C   0  0  0  0  0  3  0  0  0  0  0  0
   -0.5133   -2.1985   -2.2978 H   0  0  0  0  0  0  0  0  0  0  0  0
   -1.0730   -2.9349   -0.7885 H   0  0  0  0  0  0  0  0  0  0  0  0
   -2.5150   -1.5772   -1.7008 C   0  0  0  0  0  0  0  0  0  0  0  0
   -2.5020   -0.6683   -2.3430 H   0  0  0  0  0  0  0  0  0  0  0  0
   -3.0584   -1.2837   -0.7798 H   0  0  0  0  0  0  0  0  0  0  0  0
   -3.2758   -2.6683   -2.4012 C   0  0  0  0  0  0  0  0  0  0  0  0
   -2.8621   -2.9807   -3.3781 H   0  0  0  0  0  0  0  0  0  0  0  0
   -4.3676   -3.3250   -1.9496 C   0  0  0  0  0  0  0  0  0  0  0  0
   -4.7848   -4.1226   -2.5915 H   0  0  0  0  0  0  0  0  0  0  0  0
   -5.0956   -3.0948   -0.6558 C   0  0  0  0  0  0  0  0  0  0  0  0
   -4.6193   -2.3191   -0.0250 H   0  0  0  0  0  0  0  0  0  0  0  0
   -5.1478   -4.0281   -0.0535 H   0  0  0  0  0  0  0  0  0  0  0  0
   -6.1496   -2.7867   -0.8340 H   0  0  0  0  0  0  0  0  0  0  0  0
  1  3  1  0  0  0  0
  2  1  1  0  0  0  0
  4  1  1  0  0  0  0
  4  6  1  0  0  0  0
  5  4  1  0  0  0  0
  7  9  2  0  0  0  0
  7  4  1  0  0  0  0
  8  7  1  0  0  0  0
  9 11  1  0  0  0  0
 10  9  1  0  0  0  0
 11 13  1  0  0  0  0
 11 12  1  0  0  0  0
 14 11  1  0  0  0  0
M  END
