28
 OpenBabel05122313113D

 29 30  0  0  0  0  0  0  0  0999 V2000
   -1.4422   -0.0131   -0.5400 Si  0  0  0  0  0  3  0  0  0  0  0  0
   -3.7926    2.9340    1.3499 C   0  0  0  0  0  0  0  0  0  0  0  0
   -4.0376    3.2212    2.3847 H   0  0  0  0  0  0  0  0  0  0  0  0
   -4.3758    3.6218    0.2730 C   0  0  0  0  0  0  0  0  0  0  0  0
   -5.0766    4.4501    0.4597 H   0  0  0  0  0  0  0  0  0  0  0  0
   -4.2278   -3.1409   -1.0754 C   0  0  0  0  0  0  0  0  0  0  0  0
   -4.7017   -3.6552   -1.9263 H   0  0  0  0  0  0  0  0  0  0  0  0
   -4.0665    3.2410   -1.0425 C   0  0  0  0  0  0  0  0  0  0  0  0
   -4.5273    3.7698   -1.8916 H   0  0  0  0  0  0  0  0  0  0  0  0
   -3.2834   -2.1267   -1.3081 C   0  0  0  0  0  0  0  0  0  0  0  0
   -3.0337   -1.8544   -2.3452 H   0  0  0  0  0  0  0  0  0  0  0  0
   -2.8972    1.8803    1.1070 C   0  0  0  0  0  0  0  0  0  0  0  0
   -2.4484    1.3513    1.9641 H   0  0  0  0  0  0  0  0  0  0  0  0
   -2.6506   -1.4556   -0.2385 C   0  0  0  0  0  0  0  0  0  0  0  0
   -2.5596    1.4901   -0.2086 C   0  0  0  0  0  0  0  0  0  0  0  0
   -4.5710   -3.4959    0.2383 C   0  0  0  0  0  0  0  0  0  0  0  0
   -5.3103   -4.2907    0.4225 H   0  0  0  0  0  0  0  0  0  0  0  0
   -3.9720   -2.8243    1.3171 C   0  0  0  0  0  0  0  0  0  0  0  0
   -4.2437   -3.0895    2.3510 H   0  0  0  0  0  0  0  0  0  0  0  0
   -3.1725    2.1834   -1.2766 C   0  0  0  0  0  0  0  0  0  0  0  0
   -2.9415    1.8869   -2.3132 H   0  0  0  0  0  0  0  0  0  0  0  0
   -0.3450   -1.2643   -2.9216 C   0  0  0  0  0  0  0  0  0  0  0  0
    0.6252   -1.4459   -3.4325 H   0  0  0  0  0  0  0  0  0  0  0  0
   -1.0928   -1.1167   -3.7361 H   0  0  0  0  0  0  0  0  0  0  0  0
   -0.6192   -2.2148   -2.4194 H   0  0  0  0  0  0  0  0  0  0  0  0
   -3.0259   -1.8177    1.0752 C   0  0  0  0  0  0  0  0  0  0  0  0
   -2.5607   -1.3060    1.9350 H   0  0  0  0  0  0  0  0  0  0  0  0
   -0.3091   -0.0863   -1.9584 C   0  0  0  0  0  3  0  0  0  0  0  0
   -0.1962    0.8686   -2.5057 H   0  0  0  0  0  0  0  0  0  0  0  0
  1 14  1  0  0  0  0
  1 15  1  0  0  0  0
  2  3  1  0  0  0  0
  4  5  1  0  0  0  0
  4  2  2  0  0  0  0
  6 16  1  0  0  0  0
  7  6  1  0  0  0  0
  8  4  1  0  0  0  0
  9  8  1  0  0  0  0
 10  6  2  0  0  0  0
 10 14  1  0  0  0  0
 11 10  1  0  0  0  0
 12  2  1  0  0  0  0
 12 13  1  0  0  0  0
 14 26  2  0  0  0  0
 15 12  2  0  0  0  0
 16 17  1  0  0  0  0
 16 18  2  0  0  0  0
 18 19  1  0  0  0  0
 20  8  2  0  0  0  0
 20 15  1  0  0  0  0
 21 20  1  0  0  0  0
 22 25  1  0  0  0  0
 22 28  1  0  0  0  0
 23 22  1  0  0  0  0
 24 22  1  0  0  0  0
 26 18  1  0  0  0  0
 26 27  1  0  0  0  0
 28  1  1  0  0  0  0
 29 28  1  0  0  0  0
M  END
