3
 OpenBabel05122313113D

 30 30  0  0  1  0  0  0  0  0999 V2000
   -2.8965   -2.1305    0.5519 C   0  0  0  0  0  3  0  0  0  0  0  0
   -1.6837   -1.8799   -0.1583 C   0  0  0  0  0  3  0  0  0  0  0  0
   -0.7677   -0.9310    0.3937 C   0  0  2  0  0  3  0  0  0  0  0  0
   -1.1696   -0.3246    1.6402 C   0  0  0  0  0  3  0  0  0  0  0  0
    0.3999   -0.5140   -0.4766 C   0  0  0  0  0  0  0  0  0  0  0  0
    0.5329   -0.9420   -1.6263 O   0  0  0  0  0  0  0  0  0  0  0  0
    1.2643    0.3704    0.1027 N   0  0  0  0  0  0  0  0  0  0  0  0
    2.3899    0.9674   -0.6180 C   0  0  1  0  0  0  0  0  0  0  0  0
    2.3437    2.4895   -0.4807 C   0  0  0  0  0  0  0  0  0  0  0  0
    3.7011    0.3046   -0.1978 C   0  0  0  0  0  0  0  0  0  0  0  0
    3.8930   -1.0568   -0.5203 C   0  0  0  0  0  0  0  0  0  0  0  0
    5.0618   -1.7251   -0.1350 C   0  0  0  0  0  0  0  0  0  0  0  0
    6.0622   -1.0435    0.5798 C   0  0  0  0  0  0  0  0  0  0  0  0
    5.8831    0.3091    0.9007 C   0  0  0  0  0  0  0  0  0  0  0  0
    4.7099    0.9794    0.5132 C   0  0  0  0  0  0  0  0  0  0  0  0
   -2.8939   -2.2505    1.6461 H   0  0  0  0  0  0  0  0  0  0  0  0
   -3.6927   -2.6860    0.0331 H   0  0  0  0  0  0  0  0  0  0  0  0
   -1.4828   -2.2471   -1.1766 H   0  0  0  0  0  0  0  0  0  0  0  0
   -1.5647   -0.9590    2.4494 H   0  0  0  0  0  0  0  0  0  0  0  0
   -0.6296    0.5645    2.0024 H   0  0  0  0  0  0  0  0  0  0  0  0
    1.1819    0.5601    1.1026 H   0  0  0  0  0  0  0  0  0  0  0  0
    2.2043    0.6895   -1.6764 H   0  0  0  0  0  0  0  0  0  0  0  0
    3.1564    2.9657   -1.0632 H   0  0  0  0  0  0  0  0  0  0  0  0
    2.4522    2.8108    0.5764 H   0  0  0  0  0  0  0  0  0  0  0  0
    1.3725    2.8709   -0.8502 H   0  0  0  0  0  0  0  0  0  0  0  0
    3.1083   -1.5845   -1.0857 H   0  0  0  0  0  0  0  0  0  0  0  0
    5.1977   -2.7852   -0.3988 H   0  0  0  0  0  0  0  0  0  0  0  0
    6.9821   -1.5672    0.8814 H   0  0  0  0  0  0  0  0  0  0  0  0
    6.6629    0.8526    1.4561 H   0  0  0  0  0  0  0  0  0  0  0  0
    4.5906    2.0423    0.7693 H   0  0  0  0  0  0  0  0  0  0  0  0
  1 16  1  0  0  0  0
  2  3  1  0  0  0  0
  2  1  1  0  0  0  0
  3  5  1  6  0  0  0
  3  4  1  0  0  0  0
  4 20  1  0  0  0  0
  4 19  1  0  0  0  0
  5  7  1  0  0  0  0
  6  5  2  0  0  0  0
  7 21  1  0  0  0  0
  8 22  1  6  0  0  0
  8  9  1  0  0  0  0
  8 10  1  0  0  0  0
  8  7  1  0  0  0  0
  9 24  1  0  0  0  0
 10 15  1  0  0  0  0
 11 10  2  0  0  0  0
 11 12  1  0  0  0  0
 12 13  2  0  0  0  0
 13 28  1  0  0  0  0
 13 14  1  0  0  0  0
 14 29  1  0  0  0  0
 15 30  1  0  0  0  0
 15 14  2  0  0  0  0
 17  1  1  0  0  0  0
 18  2  1  0  0  0  0
 23  9  1  0  0  0  0
 25  9  1  0  0  0  0
 26 11  1  0  0  0  0
 27 12  1  0  0  0  0
M  END
