3
 OpenBabel05122313113D

 17 16  0  0  0  0  0  0  0  0999 V2000
   -0.7358   -1.8003    1.2221 C   0  0  0  0  0  3  0  0  0  0  0  0
   -1.9241   -1.2217    0.7715 C   0  0  0  0  0  3  0  0  0  0  0  0
   -2.1480    0.1756    1.0542 C   0  0  0  0  0  3  0  0  0  0  0  0
   -3.4223    0.9131    0.7140 C   0  0  0  0  0  0  0  0  0  0  0  0
   -2.8772   -2.0404   -0.0690 C   0  0  0  0  0  0  0  0  0  0  0  0
   -0.3492   -3.2349    1.0188 C   0  0  0  0  0  0  0  0  0  0  0  0
   -3.7482    0.7736   -0.3361 H   0  0  0  0  0  0  0  0  0  0  0  0
   -3.2933    2.0058    0.8578 H   0  0  0  0  0  0  0  0  0  0  0  0
   -4.2771    0.6055    1.3584 H   0  0  0  0  0  0  0  0  0  0  0  0
   -1.7711    0.4485    2.0541 H   0  0  0  0  0  0  0  0  0  0  0  0
   -0.2069   -1.2748    2.0422 H   0  0  0  0  0  0  0  0  0  0  0  0
    0.7443   -3.3624    1.1291 H   0  0  0  0  0  0  0  0  0  0  0  0
   -0.6222   -3.6064    0.0109 H   0  0  0  0  0  0  0  0  0  0  0  0
   -0.8529   -3.8942    1.7620 H   0  0  0  0  0  0  0  0  0  0  0  0
   -3.7214   -1.4449   -0.4605 H   0  0  0  0  0  0  0  0  0  0  0  0
   -2.3788   -2.5502   -0.9167 H   0  0  0  0  0  0  0  0  0  0  0  0
   -3.3076   -2.8426    0.5667 H   0  0  0  0  0  0  0  0  0  0  0  0
  1 11  1  0  0  0  0
  2  3  1  0  0  0  0
  2  1  1  0  0  0  0
  3 10  1  0  0  0  0
  4  8  1  0  0  0  0
  4  3  1  0  0  0  0
  4  9  1  0  0  0  0
  5 17  1  0  0  0  0
  5  2  1  0  0  0  0
  6 12  1  0  0  0  0
  6  1  1  0  0  0  0
  6 14  1  0  0  0  0
  7  4  1  0  0  0  0
 13  6  1  0  0  0  0
 15  5  1  0  0  0  0
 16  5  1  0  0  0  0
M  END
