1
 OpenBabel05122313113D

 25 27  0  0  0  0  0  0  0  0999 V2000
   -0.0387   -0.0649   -0.0004 C   0  0  0  0  0  2  0  0  0  0  0  0
   -1.3197   -0.7147   -0.0098 C   0  0  0  0  0  0  0  0  0  0  0  0
   -1.2777    0.6488   -0.0168 C   0  0  0  0  0  0  0  0  0  0  0  0
   -2.1075   -1.9256   -0.0198 C   0  0  0  0  0  0  0  0  0  0  0  0
   -3.5056   -1.8797   -0.2481 C   0  0  0  0  0  0  0  0  0  0  0  0
   -4.2625   -3.0556   -0.2630 C   0  0  0  0  0  0  0  0  0  0  0  0
   -3.6403   -4.2973   -0.0430 C   0  0  0  0  0  0  0  0  0  0  0  0
   -2.2553   -4.3573    0.1861 C   0  0  0  0  0  0  0  0  0  0  0  0
   -1.4925   -3.1839    0.1932 C   0  0  0  0  0  0  0  0  0  0  0  0
   -1.9232    1.9382   -0.0088 C   0  0  0  0  0  0  0  0  0  0  0  0
   -3.3303    2.0653    0.1007 C   0  0  0  0  0  0  0  0  0  0  0  0
   -3.9264    3.3300    0.1168 C   0  0  0  0  0  0  0  0  0  0  0  0
   -3.1286    4.4844    0.0202 C   0  0  0  0  0  0  0  0  0  0  0  0
   -1.7321    4.3704   -0.0872 C   0  0  0  0  0  0  0  0  0  0  0  0
   -1.1283    3.1082   -0.0983 C   0  0  0  0  0  0  0  0  0  0  0  0
   -3.9482    1.1596    0.1866 H   0  0  0  0  0  0  0  0  0  0  0  0
   -5.0194    3.4213    0.2058 H   0  0  0  0  0  0  0  0  0  0  0  0
   -3.5999    5.4790    0.0306 H   0  0  0  0  0  0  0  0  0  0  0  0
   -1.1090    5.2742   -0.1609 H   0  0  0  0  0  0  0  0  0  0  0  0
   -0.0374    3.0113   -0.1834 H   0  0  0  0  0  0  0  0  0  0  0  0
   -3.9873   -0.9078   -0.4295 H   0  0  0  0  0  0  0  0  0  0  0  0
   -5.3464   -3.0075   -0.4471 H   0  0  0  0  0  0  0  0  0  0  0  0
   -4.2380   -5.2214   -0.0516 H   0  0  0  0  0  0  0  0  0  0  0  0
   -1.7671   -5.3283    0.3586 H   0  0  0  0  0  0  0  0  0  0  0  0
   -0.4102   -3.2248    0.3737 H   0  0  0  0  0  0  0  0  0  0  0  0
  2  1  1  0  0  0  0
  3  2  2  0  0  0  0
  3 10  1  0  0  0  0
  3  1  1  0  0  0  0
  4  2  1  0  0  0  0
  4  9  1  0  0  0  0
  5  4  2  0  0  0  0
  6  5  1  0  0  0  0
  6  7  2  0  0  0  0
  7  8  1  0  0  0  0
  8  9  2  0  0  0  0
  8 24  1  0  0  0  0
  9 25  1  0  0  0  0
 10 11  1  0  0  0  0
 11 12  2  0  0  0  0
 11 16  1  0  0  0  0
 12 17  1  0  0  0  0
 13 18  1  0  0  0  0
 13 12  1  0  0  0  0
 14 13  2  0  0  0  0
 15 14  1  0  0  0  0
 15 10  2  0  0  0  0
 19 14  1  0  0  0  0
 20 15  1  0  0  0  0
 21  5  1  0  0  0  0
 22  6  1  0  0  0  0
 23  7  1  0  0  0  0
M  END
