7
 OpenBabel05122313113D

 34 36  0  0  0  0  0  0  0  0999 V2000
    2.3257   -2.3493   -0.2289 C   0  0  0  0  0  0  0  0  0  0  0  0
    1.7663   -3.1351    0.5077 O   0  0  0  0  0  0  0  0  0  0  0  0
    1.8952   -0.9981   -0.6808 C   0  0  0  0  0  0  0  0  0  0  0  0
    3.0552   -0.3650   -1.4104 C   0  0  0  0  0  0  0  0  0  0  0  0
    3.9341   -1.5929   -1.7181 C   0  0  0  0  0  0  0  0  0  0  0  0
    3.5579   -2.6179   -0.7821 O   0  0  0  0  0  0  0  0  0  0  0  0
    0.6822   -0.4827   -0.4079 C   0  0  0  0  0  3  0  0  0  0  0  0
    0.0538    0.8074   -0.4180 C   0  0  0  0  0  3  0  0  0  0  0  0
   -1.3092    0.8025   -0.9261 C   0  0  0  0  0  0  0  0  0  0  0  0
   -1.7796   -0.4237   -1.5362 C   0  0  0  0  0  0  0  0  0  0  0  0
   -3.1713   -0.5629   -1.8472 C   0  0  0  0  0  0  0  0  0  0  0  0
   -4.0546    0.4726   -1.6102 C   0  0  0  0  0  0  0  0  0  0  0  0
   -3.5788    1.7083   -1.0702 C   0  0  0  0  0  0  0  0  0  0  0  0
   -2.2525    1.8777   -0.7327 C   0  0  0  0  0  0  0  0  0  0  0  0
    0.7794    2.0308    0.0088 C   0  0  0  0  0  0  0  0  0  0  0  0
    1.6635    2.0110    1.1109 C   0  0  0  0  0  0  0  0  0  0  0  0
    2.4088    3.1471    1.4497 C   0  0  0  0  0  0  0  0  0  0  0  0
    2.2932    4.3244    0.6914 C   0  0  0  0  0  0  0  0  0  0  0  0
    1.4308    4.3520   -0.4149 C   0  0  0  0  0  0  0  0  0  0  0  0
    0.6826    3.2158   -0.7560 C   0  0  0  0  0  0  0  0  0  0  0  0
    3.5818    0.3527   -0.7423 H   0  0  0  0  0  0  0  0  0  0  0  0
    2.7610    0.1923   -2.3208 H   0  0  0  0  0  0  0  0  0  0  0  0
    5.0191   -1.4049   -1.6002 H   0  0  0  0  0  0  0  0  0  0  0  0
    3.7559   -1.9744   -2.7476 H   0  0  0  0  0  0  0  0  0  0  0  0
   -1.0595   -1.0816   -2.0418 H   0  0  0  0  0  0  0  0  0  0  0  0
   -3.5182   -1.4971   -2.3141 H   0  0  0  0  0  0  0  0  0  0  0  0
   -5.1204    0.3619   -1.8586 H   0  0  0  0  0  0  0  0  0  0  0  0
   -4.2901    2.5309   -0.9003 H   0  0  0  0  0  0  0  0  0  0  0  0
   -1.9075    2.8131   -0.2714 H   0  0  0  0  0  0  0  0  0  0  0  0
    1.7570    1.0951    1.7117 H   0  0  0  0  0  0  0  0  0  0  0  0
    3.0836    3.1142    2.3185 H   0  0  0  0  0  0  0  0  0  0  0  0
    2.8782    5.2167    0.9606 H   0  0  0  0  0  0  0  0  0  0  0  0
    1.3435    5.2639   -1.0251 H   0  0  0  0  0  0  0  0  0  0  0  0
    0.0323    3.2367   -1.6433 H   0  0  0  0  0  0  0  0  0  0  0  0
  1  2  2  0  0  0  0
  3  7  2  0  0  0  0
  3  1  1  0  0  0  0
  4 21  1  0  0  0  0
  4  3  1  0  0  0  0
  5 23  1  0  0  0  0
  5  4  1  0  0  0  0
  5  6  1  0  0  0  0
  6  1  1  0  0  0  0
  8  7  1  0  0  0  0
  8 15  1  0  0  0  0
  9 14  1  0  0  0  0
  9  8  1  0  0  0  0
 10  9  2  0  0  0  0
 11 12  2  0  0  0  0
 11 10  1  0  0  0  0
 12 13  1  0  0  0  0
 13 28  1  0  0  0  0
 13 14  2  0  0  0  0
 14 29  1  0  0  0  0
 15 16  1  0  0  0  0
 16 17  2  0  0  0  0
 16 30  1  0  0  0  0
 17 31  1  0  0  0  0
 18 32  1  0  0  0  0
 18 17  1  0  0  0  0
 19 18  2  0  0  0  0
 20 19  1  0  0  0  0
 20 15  2  0  0  0  0
 22  4  1  0  0  0  0
 24  5  1  0  0  0  0
 25 10  1  0  0  0  0
 26 11  1  0  0  0  0
 27 12  1  0  0  0  0
 33 19  1  0  0  0  0
 34 20  1  0  0  0  0
M  END
