10
 OpenBabel05122313113D

 30 29  0  0  0  0  0  0  0  0999 V2000
   -3.1453    0.2640    2.1953 O   0  0  0  0  0  0  0  0  0  0  0  0
   -3.2023   -1.9559    1.7241 O   0  0  0  0  0  0  0  0  0  0  0  0
   -1.9200    2.9531    0.6268 O   0  0  0  0  0  0  0  0  0  0  0  0
   -3.9156    2.0203    0.0921 O   0  0  0  0  0  0  0  0  0  0  0  0
   -1.3742   -0.0457   -2.6489 O   0  0  0  0  0  0  0  0  0  0  0  0
   -1.3989    2.1859   -2.2317 O   0  0  0  0  0  0  0  0  0  0  0  0
   -3.6026   -1.8574   -1.4353 O   0  0  0  0  0  0  0  0  0  0  0  0
   -1.5384   -2.6295   -0.9147 O   0  0  0  0  0  0  0  0  0  0  0  0
   -2.2611   -0.5604    0.0863 C   0  0  0  0  0  3  0  0  0  0  0  0
   -1.9961    0.7696   -0.4498 C   0  0  0  0  0  3  0  0  0  0  0  0
   -2.9171   -0.6565    1.4237 C   0  0  0  0  0  0  0  0  0  0  0  0
   -3.7680   -2.1707    3.0177 C   0  0  0  0  0  0  0  0  0  0  0  0
   -3.9827   -3.2525    3.0832 H   0  0  0  0  0  0  0  0  0  0  0  0
   -4.6992   -1.5831    3.1474 H   0  0  0  0  0  0  0  0  0  0  0  0
   -3.0569   -1.8711    3.8152 H   0  0  0  0  0  0  0  0  0  0  0  0
   -2.5681    2.0229    0.1740 C   0  0  0  0  0  0  0  0  0  0  0  0
   -4.5729    3.0929    0.7723 C   0  0  0  0  0  0  0  0  0  0  0  0
   -5.6424    3.0185    0.5054 H   0  0  0  0  0  0  0  0  0  0  0  0
   -4.1581    4.0740    0.4664 H   0  0  0  0  0  0  0  0  0  0  0  0
   -4.4425    2.9747    1.8676 H   0  0  0  0  0  0  0  0  0  0  0  0
   -1.5757    0.8808   -1.8705 C   0  0  0  0  0  0  0  0  0  0  0  0
   -0.9260    2.3993   -3.5611 C   0  0  0  0  0  0  0  0  0  0  0  0
   -1.0170    3.4843   -3.7498 H   0  0  0  0  0  0  0  0  0  0  0  0
   -1.5228    1.8232   -4.2958 H   0  0  0  0  0  0  0  0  0  0  0  0
    0.1371    2.0909   -3.6549 H   0  0  0  0  0  0  0  0  0  0  0  0
   -2.5517   -1.7177   -0.8445 C   0  0  0  0  0  0  0  0  0  0  0  0
   -1.7918   -3.7187   -1.8101 C   0  0  0  0  0  0  0  0  0  0  0  0
   -0.8931   -4.3616   -1.7767 H   0  0  0  0  0  0  0  0  0  0  0  0
   -1.9594   -3.3405   -2.8385 H   0  0  0  0  0  0  0  0  0  0  0  0
   -2.6891   -4.2884   -1.4952 H   0  0  0  0  0  0  0  0  0  0  0  0
  2 12  1  0  0  0  0
  4 16  1  0  0  0  0
  4 17  1  0  0  0  0
  5 21  2  0  0  0  0
  6 21  1  0  0  0  0
  7 26  2  0  0  0  0
  8 26  1  0  0  0  0
  9 11  1  0  0  0  0
 10  9  1  0  0  0  0
 10 16  1  0  0  0  0
 11  2  1  0  0  0  0
 11  1  2  0  0  0  0
 12 13  1  0  0  0  0
 12 14  1  0  0  0  0
 12 15  1  0  0  0  0
 16  3  2  0  0  0  0
 17 20  1  0  0  0  0
 18 17  1  0  0  0  0
 19 17  1  0  0  0  0
 21 10  1  0  0  0  0
 22  6  1  0  0  0  0
 23 22  1  0  0  0  0
 24 22  1  0  0  0  0
 25 22  1  0  0  0  0
 26  9  1  0  0  0  0
 27 28  1  0  0  0  0
 27 30  1  0  0  0  0
 27  8  1  0  0  0  0
 29 27  1  0  0  0  0
M  END
