4
 OpenBabel05122313113D

 24 23  0  0  0  0  0  0  0  0999 V2000
   -1.4576    0.1714    1.3061 O   0  0  0  0  0  0  0  0  0  0  0  0
   -3.2725   -0.0224   -0.0858 N   0  0  0  0  0  0  0  0  0  0  0  0
   -0.3689    0.6311   -1.7239 C   0  0  0  0  0  3  0  0  0  0  0  0
   -1.0080   -0.3894   -0.9657 C   0  0  0  0  0  3  0  0  0  0  0  0
   -0.3746   -1.6680   -1.0069 C   0  0  0  0  0  3  0  0  0  0  0  0
   -1.9458   -0.0523    0.1821 C   0  0  0  0  0  0  0  0  0  0  0  0
   -4.2034    0.2865    1.0087 C   0  0  0  0  0  0  0  0  0  0  0  0
   -4.6790   -0.9634    1.7473 C   0  0  0  0  0  0  0  0  0  0  0  0
   -3.8279   -0.3106   -1.4122 C   0  0  0  0  0  0  0  0  0  0  0  0
   -4.1602    0.9429   -2.2198 C   0  0  0  0  0  0  0  0  0  0  0  0
   -0.6956    1.6768   -1.6072 H   0  0  0  0  0  0  0  0  0  0  0  0
    0.0820    0.3817   -2.7019 H   0  0  0  0  0  0  0  0  0  0  0  0
    0.0250   -2.0446   -1.9654 H   0  0  0  0  0  0  0  0  0  0  0  0
   -0.7047   -2.4442   -0.2961 H   0  0  0  0  0  0  0  0  0  0  0  0
   -3.6764    0.9656    1.7062 H   0  0  0  0  0  0  0  0  0  0  0  0
   -5.0581    0.8437    0.5742 H   0  0  0  0  0  0  0  0  0  0  0  0
   -5.1875   -1.6764    1.0670 H   0  0  0  0  0  0  0  0  0  0  0  0
   -5.3993   -0.6871    2.5423 H   0  0  0  0  0  0  0  0  0  0  0  0
   -3.8245   -1.4813    2.2254 H   0  0  0  0  0  0  0  0  0  0  0  0
   -4.7353   -0.9336   -1.2662 H   0  0  0  0  0  0  0  0  0  0  0  0
   -3.1058   -0.9458   -1.9627 H   0  0  0  0  0  0  0  0  0  0  0  0
   -4.6208    0.6649   -3.1882 H   0  0  0  0  0  0  0  0  0  0  0  0
   -4.8768    1.5972   -1.6841 H   0  0  0  0  0  0  0  0  0  0  0  0
   -3.2469    1.5344   -2.4309 H   0  0  0  0  0  0  0  0  0  0  0  0
  2  6  1  0  0  0  0
  2  7  1  0  0  0  0
  3 11  1  0  0  0  0
  3  4  1  0  0  0  0
  4  6  1  0  0  0  0
  5  4  1  0  0  0  0
  5 14  1  0  0  0  0
  6  1  2  0  0  0  0
  7 15  1  0  0  0  0
  7  8  1  0  0  0  0
  8 19  1  0  0  0  0
  8 18  1  0  0  0  0
  9 20  1  0  0  0  0
  9  2  1  0  0  0  0
 10 23  1  0  0  0  0
 10  9  1  0  0  0  0
 12  3  1  0  0  0  0
 13  5  1  0  0  0  0
 16  7  1  0  0  0  0
 17  8  1  0  0  0  0
 21  9  1  0  0  0  0
 22 10  1  0  0  0  0
 24 10  1  0  0  0  0
M  END
