1
 OpenBabel05122313113D

 13 12  0  0  0  0  0  0  0  0999 V2000
    0.1623   -1.9078    0.4286 C   0  0  0  0  0  3  0  0  0  0  0  0
    1.4831   -2.1642   -0.1036 C   0  0  0  0  0  0  0  0  0  0  0  0
    1.6694   -1.9274   -1.1657 H   0  0  0  0  0  0  0  0  0  0  0  0
    2.5616   -2.6671    0.6068 C   0  0  0  0  0  0  0  0  0  0  0  0
    2.4483   -2.9243    2.0098 C   0  0  0  0  0  0  0  0  0  0  0  0
    2.3329   -3.0651    3.1712 N   0  0  0  0  0  0  0  0  0  0  0  0
    3.8289   -2.8806   -0.0192 C   0  0  0  0  0  0  0  0  0  0  0  0
    4.8624   -3.0734   -0.5456 N   0  0  0  0  0  0  0  0  0  0  0  0
   -0.7202   -2.9554    0.6664 C   0  0  0  0  0  0  0  0  0  0  0  0
   -2.0277   -2.7144    1.1956 C   0  0  0  0  0  0  0  0  0  0  0  0
   -3.0994   -2.4958    1.6278 N   0  0  0  0  0  0  0  0  0  0  0  0
   -0.4069   -4.3071    0.3009 C   0  0  0  0  0  0  0  0  0  0  0  0
   -0.1480   -5.4022   -0.0396 N   0  0  0  0  0  0  0  0  0  0  0  0
  1  9  2  0  0  0  0
  2  1  1  0  0  0  0
  2  4  2  0  0  0  0
  3  2  1  0  0  0  0
  4  5  1  0  0  0  0
  5  6  3  0  0  0  0
  7  4  1  0  0  0  0
  8  7  3  0  0  0  0
  9 10  1  0  0  0  0
 10 11  3  0  0  0  0
 12  9  1  0  0  0  0
 13 12  3  0  0  0  0
M  END
