1
 OpenBabel05122313113D

 10  9  0  0  0  0  0  0  0  0999 V2000
   -1.3267   -0.6391    0.8653 C   0  0  0  0  0  0  0  0  0  0  0  0
   -2.5097   -0.9812    0.5990 C   0  0  0  0  0  0  0  0  0  0  0  0
   -3.8331   -1.2643    0.2868 C   0  0  0  0  0  0  0  0  0  0  0  0
   -4.6492   -1.8469    1.3218 C   0  0  0  0  0  0  0  0  0  0  0  0
   -5.2658   -2.3208    2.2018 N   0  0  0  0  0  0  0  0  0  0  0  0
   -4.4208   -0.9936   -0.9760 C   0  0  0  0  0  0  0  0  0  0  0  0
   -3.6229   -0.3924   -1.9897 C   0  0  0  0  0  0  0  0  0  0  0  0
   -2.9442    0.1051   -2.8133 N   0  0  0  0  0  0  0  0  0  0  0  0
   -5.7812   -1.2905   -1.2701 C   0  0  0  0  0  0  0  0  0  0  0  0
   -6.9053   -1.5265   -1.5277 N   0  0  0  0  0  0  0  0  0  0  0  0
  2  1  3  0  0  0  0
  3  2  1  0  0  0  0
  3  4  1  0  0  0  0
  4  5  3  0  0  0  0
  6  3  2  0  0  0  0
  7  6  1  0  0  0  0
  8  7  3  0  0  0  0
  9  6  1  0  0  0  0
 10  9  3  0  0  0  0
M  END
