1
 OpenBabel05122313113D

 15 15  0  0  1  0  0  0  0  0999 V2000
   -1.4657    0.9371    0.2434 C   0  0  1  0  0  3  0  0  0  0  0  0
   -0.7312    1.7659   -0.6759 C   0  0  0  0  0  3  0  0  0  0  0  0
    0.3561    2.3514    0.0301 C   0  0  0  0  0  0  0  0  0  0  0  0
    0.3122    1.8928    1.3826 C   0  0  0  0  0  0  0  0  0  0  0  0
   -0.8066    1.0201    1.5228 C   0  0  0  0  0  3  0  0  0  0  0  0
   -2.6859    0.1635   -0.1423 C   0  0  0  0  0  0  0  0  0  0  0  0
   -3.3533   -0.6694    0.9338 C   0  0  0  0  0  0  0  0  0  0  0  0
   -3.1155    0.2272   -1.2875 O   0  0  0  0  0  0  0  0  0  0  0  0
   -1.0043    1.9120   -1.7270 H   0  0  0  0  0  0  0  0  0  0  0  0
    1.1051    3.0347   -0.3885 H   0  0  0  0  0  0  0  0  0  0  0  0
    1.0188    2.1667    2.1757 H   0  0  0  0  0  0  0  0  0  0  0  0
   -1.1157    0.5160    2.4457 H   0  0  0  0  0  0  0  0  0  0  0  0
   -2.6685   -1.4636    1.2961 H   0  0  0  0  0  0  0  0  0  0  0  0
   -4.2644   -1.1356    0.5188 H   0  0  0  0  0  0  0  0  0  0  0  0
   -3.6195   -0.0429    1.8099 H   0  0  0  0  0  0  0  0  0  0  0  0
  1  6  1  1  0  0  0
  1  5  1  0  0  0  0
  2  3  1  0  0  0  0
  2  1  1  0  0  0  0
  3  4  2  0  0  0  0
  4  5  1  0  0  0  0
  4 11  1  0  0  0  0
  5 12  1  0  0  0  0
  6  7  1  0  0  0  0
  7 13  1  0  0  0  0
  7 15  1  0  0  0  0
  8  6  2  0  0  0  0
  9  2  1  0  0  0  0
 10  3  1  0  0  0  0
 14  7  1  0  0  0  0
M  END
