4
 OpenBabel05122313113D

 47 48  0  0  0  0  0  0  0  0999 V2000
    3.3110    0.8158    0.3217 O   0  0  0  0  0  0  0  0  0  0  0  0
    1.1303    0.6274    2.1129 N   0  0  0  0  0  0  0  0  0  0  0  0
   -0.6777    0.8951    0.9666 N   0  0  0  0  0  0  0  0  0  0  0  0
    0.4067    0.0704    1.0941 C   0  0  0  0  0  2  0  0  0  0  0  0
    0.5207    1.7781    2.6009 C   0  0  0  0  0  0  0  0  0  0  0  0
    0.9446    2.3682    3.4190 H   0  0  0  0  0  0  0  0  0  0  0  0
   -0.6295    1.9483    1.8746 C   0  0  0  0  0  0  0  0  0  0  0  0
   -1.4143    2.7083    1.9257 H   0  0  0  0  0  0  0  0  0  0  0  0
   -1.6643    0.7476   -0.0730 C   0  0  0  0  0  0  0  0  0  0  0  0
   -2.8939    0.1205    0.2387 C   0  0  0  0  0  0  0  0  0  0  0  0
   -3.8390    0.0042   -0.7966 C   0  0  0  0  0  0  0  0  0  0  0  0
   -4.8044   -0.4821   -0.5952 H   0  0  0  0  0  0  0  0  0  0  0  0
   -3.5613    0.4842   -2.0832 C   0  0  0  0  0  0  0  0  0  0  0  0
   -4.3134    0.3798   -2.8799 H   0  0  0  0  0  0  0  0  0  0  0  0
   -2.3276    1.0817   -2.3643 C   0  0  0  0  0  0  0  0  0  0  0  0
   -2.1154    1.4395   -3.3830 H   0  0  0  0  0  0  0  0  0  0  0  0
   -1.3450    1.2257   -1.3662 C   0  0  0  0  0  0  0  0  0  0  0  0
   -3.1404   -0.4972    1.6091 C   0  0  0  0  0  0  0  0  0  0  0  0
   -2.4839    0.0254    2.3359 H   0  0  0  0  0  0  0  0  0  0  0  0
   -4.5851   -0.3351    2.1007 C   0  0  0  0  0  0  0  0  0  0  0  0
   -4.9089    0.7252    2.0838 H   0  0  0  0  0  0  0  0  0  0  0  0
   -4.6795   -0.7080    3.1404 H   0  0  0  0  0  0  0  0  0  0  0  0
   -5.2996   -0.9179    1.4839 H   0  0  0  0  0  0  0  0  0  0  0  0
   -2.7142   -1.9785    1.5891 C   0  0  0  0  0  0  0  0  0  0  0  0
   -3.3383   -2.5541    0.8750 H   0  0  0  0  0  0  0  0  0  0  0  0
   -2.8286   -2.4351    2.5937 H   0  0  0  0  0  0  0  0  0  0  0  0
   -1.6574   -2.0911    1.2717 H   0  0  0  0  0  0  0  0  0  0  0  0
   -0.0070    1.8799   -1.6909 C   0  0  0  0  0  0  0  0  0  0  0  0
    0.6537    1.7689   -0.8082 H   0  0  0  0  0  0  0  0  0  0  0  0
   -0.1849    3.3858   -1.9532 C   0  0  0  0  0  0  0  0  0  0  0  0
   -0.8300    3.5683   -2.8378 H   0  0  0  0  0  0  0  0  0  0  0  0
    0.7958    3.8667   -2.1473 H   0  0  0  0  0  0  0  0  0  0  0  0
   -0.6522    3.8969   -1.0869 H   0  0  0  0  0  0  0  0  0  0  0  0
    0.7032    1.1743   -2.8580 C   0  0  0  0  0  0  0  0  0  0  0  0
    0.1309    1.2616   -3.8046 H   0  0  0  0  0  0  0  0  0  0  0  0
    0.8544    0.0956   -2.6460 H   0  0  0  0  0  0  0  0  0  0  0  0
    1.6989    1.6321   -3.0307 H   0  0  0  0  0  0  0  0  0  0  0  0
    2.4765    0.1880    2.4579 C   0  0  0  0  0  0  0  0  0  0  0  0
    2.5423   -0.8853    2.1919 H   0  0  0  0  0  0  0  0  0  0  0  0
    2.6317    0.2971    3.5497 H   0  0  0  0  0  0  0  0  0  0  0  0
    3.5416    0.9743    1.6952 C   0  0  0  0  0  0  0  0  0  0  0  0
    3.5055    2.0560    1.9889 H   0  0  0  0  0  0  0  0  0  0  0  0
    4.5488    0.5901    1.9963 H   0  0  0  0  0  0  0  0  0  0  0  0
    4.2500    1.4709   -0.5004 C   0  0  0  0  0  0  0  0  0  0  0  0
    4.2505    2.5756   -0.3336 H   0  0  0  0  0  0  0  0  0  0  0  0
    3.9642    1.2649   -1.5493 H   0  0  0  0  0  0  0  0  0  0  0  0
    5.2869    1.0937   -0.3318 H   0  0  0  0  0  0  0  0  0  0  0  0
  1 41  1  0  0  0  0
  2 38  1  0  0  0  0
  2  5  1  0  0  0  0
  3  4  1  0  0  0  0
  3  7  1  0  0  0  0
  4  2  1  0  0  0  0
  5  6  1  0  0  0  0
  7  8  1  0  0  0  0
  7  5  2  0  0  0  0
  9 10  1  0  0  0  0
  9  3  1  0  0  0  0
 10 18  1  0  0  0  0
 11 12  1  0  0  0  0
 11 10  2  0  0  0  0
 13 11  1  0  0  0  0
 14 13  1  0  0  0  0
 15 13  2  0  0  0  0
 15 17  1  0  0  0  0
 16 15  1  0  0  0  0
 17  9  2  0  0  0  0
 18 20  1  0  0  0  0
 18 19  1  0  0  0  0
 20 22  1  0  0  0  0
 21 20  1  0  0  0  0
 23 20  1  0  0  0  0
 24 18  1  0  0  0  0
 24 26  1  0  0  0  0
 25 24  1  0  0  0  0
 27 24  1  0  0  0  0
 28 17  1  0  0  0  0
 28 29  1  0  0  0  0
 30 28  1  0  0  0  0
 30 33  1  0  0  0  0
 31 30  1  0  0  0  0
 32 30  1  0  0  0  0
 34 36  1  0  0  0  0
 34 28  1  0  0  0  0
 35 34  1  0  0  0  0
 37 34  1  0  0  0  0
 38 40  1  0  0  0  0
 39 38  1  0  0  0  0
 41 42  1  0  0  0  0
 41 43  1  0  0  0  0
 41 38  1  0  0  0  0
 44 45  1  0  0  0  0
 44 47  1  0  0  0  0
 44  1  1  0  0  0  0
 46 44  1  0  0  0  0
M  END
