3
 OpenBabel05122313113D

 34 37  0  0  0  0  0  0  0  0999 V2000
    1.0786   -1.0007   -1.5009 N   0  0  0  0  0  0  0  0  0  0  0  0
    2.3747   -0.6252   -1.3552 N   0  0  0  0  0  0  0  0  0  0  0  0
    0.2835   -0.6667   -0.3332 C   0  0  0  0  0  3  0  0  0  0  0  0
    1.1882   -0.1118    0.5252 C   0  0  0  0  0  0  0  0  0  0  0  0
    2.5912    0.0410   -0.0497 C   0  0  0  0  0  0  0  0  0  0  0  0
    2.8581    1.5437   -0.2294 C   0  0  0  0  0  0  0  0  0  0  0  0
    3.1154    2.3079    0.9281 C   0  0  0  0  0  0  0  0  0  0  0  0
    3.2904    3.6943    0.8360 C   0  0  0  0  0  0  0  0  0  0  0  0
    3.2151    4.3352   -0.4126 C   0  0  0  0  0  0  0  0  0  0  0  0
    2.9644    3.5785   -1.5656 C   0  0  0  0  0  0  0  0  0  0  0  0
    2.7807    2.1881   -1.4757 C   0  0  0  0  0  0  0  0  0  0  0  0
    3.7053   -0.6934    0.7030 C   0  0  0  0  0  0  0  0  0  0  0  0
    3.4005   -1.7954    1.5232 C   0  0  0  0  0  0  0  0  0  0  0  0
    4.4276   -2.5131    2.1534 C   0  0  0  0  0  0  0  0  0  0  0  0
    5.7669   -2.1370    1.9644 C   0  0  0  0  0  0  0  0  0  0  0  0
    6.0759   -1.0385    1.1465 C   0  0  0  0  0  0  0  0  0  0  0  0
    5.0498   -0.3163    0.5193 C   0  0  0  0  0  0  0  0  0  0  0  0
    0.9427   -1.6353   -2.6882 C   0  0  0  0  0  3  0  0  0  0  0  0
    2.2052   -1.6561   -3.3094 C   0  0  0  0  0  0  0  0  0  0  0  0
    3.0914   -1.0136   -2.4315 C   0  0  0  0  0  0  0  0  0  0  0  0
    0.9613    0.2918    1.5148 H   0  0  0  0  0  0  0  0  0  0  0  0
    3.1919    1.8084    1.9060 H   0  0  0  0  0  0  0  0  0  0  0  0
    3.4954    4.2786    1.7454 H   0  0  0  0  0  0  0  0  0  0  0  0
    3.3592    5.4233   -0.4852 H   0  0  0  0  0  0  0  0  0  0  0  0
    2.9101    4.0697   -2.5486 H   0  0  0  0  0  0  0  0  0  0  0  0
    2.5698    1.6161   -2.3907 H   0  0  0  0  0  0  0  0  0  0  0  0
    2.3484   -2.0835    1.6710 H   0  0  0  0  0  0  0  0  0  0  0  0
    4.1809   -3.3688    2.7994 H   0  0  0  0  0  0  0  0  0  0  0  0
    6.5724   -2.6979    2.4612 H   0  0  0  0  0  0  0  0  0  0  0  0
    7.1236   -0.7360    1.0011 H   0  0  0  0  0  0  0  0  0  0  0  0
    5.2940    0.5570   -0.1046 H   0  0  0  0  0  0  0  0  0  0  0  0
   -0.0271   -2.0214   -3.0125 H   0  0  0  0  0  0  0  0  0  0  0  0
    2.4475   -2.0933   -4.2827 H   0  0  0  0  0  0  0  0  0  0  0  0
    4.1673   -0.8177   -2.4939 H   0  0  0  0  0  0  0  0  0  0  0  0
  1  2  1  0  0  0  0
  1  3  1  0  0  0  0
  2  5  1  0  0  0  0
  3  4  2  0  0  0  0
  4 21  1  0  0  0  0
  5  4  1  0  0  0  0
  5 12  1  0  0  0  0
  6  5  1  0  0  0  0
  6  7  1  0  0  0  0
  7 22  1  0  0  0  0
  8  7  2  0  0  0  0
  8 23  1  0  0  0  0
  9  8  1  0  0  0  0
 10 11  1  0  0  0  0
 10  9  2  0  0  0  0
 11  6  2  0  0  0  0
 12 13  1  0  0  0  0
 13 27  1  0  0  0  0
 13 14  2  0  0  0  0
 14 28  1  0  0  0  0
 15 14  1  0  0  0  0
 15 29  1  0  0  0  0
 16 15  2  0  0  0  0
 17 12  2  0  0  0  0
 17 16  1  0  0  0  0
 18  1  1  0  0  0  0
 19 18  1  0  0  0  0
 19 20  2  0  0  0  0
 20  2  1  0  0  0  0
 24  9  1  0  0  0  0
 25 10  1  0  0  0  0
 26 11  1  0  0  0  0
 30 16  1  0  0  0  0
 31 17  1  0  0  0  0
 32 18  1  0  0  0  0
 33 19  1  0  0  0  0
 34 20  1  0  0  0  0
M  END
