3
 OpenBabel05122313113D

 55 59  0  0  1  0  0  0  0  0999 V2000
   -0.8152    0.7076    0.2537 N   0  0  0  0  0  0  0  0  0  0  0  0
   -0.5481   -1.2698   -0.6536 N   0  0  0  0  0  0  0  0  0  0  0  0
    0.1327   -0.1703   -0.2079 C   0  0  0  0  0  2  0  0  0  0  0  0
   -1.9256   -1.1057   -0.4640 C   0  0  0  0  0  0  0  0  0  0  0  0
   -2.1019    0.1604    0.1150 C   0  0  0  0  0  0  0  0  0  0  0  0
   -3.4100    0.6810    0.4299 C   0  0  0  0  0  0  0  0  0  0  0  0
   -3.6539    1.9826    0.9473 C   0  0  0  0  0  0  0  0  0  0  0  0
   -4.9392    2.4149    1.2544 C   0  0  0  0  0  0  0  0  0  0  0  0
   -6.0372    1.5555    1.0508 C   0  0  0  0  0  0  0  0  0  0  0  0
   -5.8278    0.2867    0.5213 C   0  0  0  0  0  0  0  0  0  0  0  0
   -4.5329   -0.1900    0.1844 C   0  0  0  0  0  0  0  0  0  0  0  0
   -4.3444   -1.5120   -0.4185 C   0  0  0  0  0  0  0  0  0  0  0  0
   -5.4455   -2.3665   -0.6915 C   0  0  0  0  0  0  0  0  0  0  0  0
   -5.2889   -3.6062   -1.3027 C   0  0  0  0  0  0  0  0  0  0  0  0
   -4.0022   -4.0427   -1.6772 C   0  0  0  0  0  0  0  0  0  0  0  0
   -2.8965   -3.2400   -1.4187 C   0  0  0  0  0  0  0  0  0  0  0  0
   -3.0293   -1.9761   -0.7793 C   0  0  0  0  0  0  0  0  0  0  0  0
   -0.3570    1.9387    0.9228 C   0  0  1  0  0  0  0  0  0  0  0  0
   -0.7641    3.2074    0.1865 C   0  0  0  0  0  0  0  0  0  0  0  0
   -0.5609    4.4680    0.7864 C   0  0  0  0  0  0  0  0  0  0  0  0
   -0.8608    5.6516    0.0957 C   0  0  0  0  0  0  0  0  0  0  0  0
   -1.3729    5.6005   -1.2097 C   0  0  0  0  0  0  0  0  0  0  0  0
   -1.5795    4.3530   -1.8174 C   0  0  0  0  0  0  0  0  0  0  0  0
   -1.2755    3.1704   -1.1281 C   0  0  0  0  0  0  0  0  0  0  0  0
   -0.6198    1.8825    2.4315 C   0  0  0  0  0  0  0  0  0  0  0  0
    0.1908   -2.4627   -1.0719 C   0  0  0  0  0  0  0  0  0  0  0  0
    0.2138   -3.5619   -0.0108 C   0  0  0  0  0  0  0  0  0  0  0  0
    1.0635   -4.7581   -0.4453 C   0  0  0  0  0  0  0  0  0  0  0  0
    1.1358   -5.8518    0.6203 C   0  0  0  0  0  0  0  0  0  0  0  0
   -2.8222    2.6784    1.0874 H   0  0  0  0  0  0  0  0  0  0  0  0
   -5.0900    3.4301    1.6503 H   0  0  0  0  0  0  0  0  0  0  0  0
   -7.0573    1.8856    1.2975 H   0  0  0  0  0  0  0  0  0  0  0  0
   -6.7009   -0.3577    0.3567 H   0  0  0  0  0  0  0  0  0  0  0  0
   -6.4595   -2.0459   -0.4205 H   0  0  0  0  0  0  0  0  0  0  0  0
   -6.1689   -4.2372   -1.4965 H   0  0  0  0  0  0  0  0  0  0  0  0
   -3.8661   -5.0158   -2.1720 H   0  0  0  0  0  0  0  0  0  0  0  0
   -1.9084   -3.5990   -1.7222 H   0  0  0  0  0  0  0  0  0  0  0  0
    0.7551    1.8487    0.7984 H   0  0  0  0  0  0  0  0  0  0  0  0
   -0.1586    4.5300    1.8080 H   0  0  0  0  0  0  0  0  0  0  0  0
   -0.6920    6.6229    0.5853 H   0  0  0  0  0  0  0  0  0  0  0  0
   -1.6122    6.5289   -1.7497 H   0  0  0  0  0  0  0  0  0  0  0  0
   -1.9859    4.2956   -2.8385 H   0  0  0  0  0  0  0  0  0  0  0  0
   -1.4593    2.2007   -1.6130 H   0  0  0  0  0  0  0  0  0  0  0  0
   -0.1256    2.7325    2.9388 H   0  0  0  0  0  0  0  0  0  0  0  0
   -0.1684    0.9537    2.8323 H   0  0  0  0  0  0  0  0  0  0  0  0
   -0.1997   -2.8185   -2.0474 H   0  0  0  0  0  0  0  0  0  0  0  0
    1.2274   -2.0977   -1.2447 H   0  0  0  0  0  0  0  0  0  0  0  0
   -1.6967    1.9039    2.6838 H   0  0  0  0  0  0  0  0  0  0  0  0
   -0.8192   -3.8952    0.2277 H   0  0  0  0  0  0  0  0  0  0  0  0
    0.6302   -3.1198    0.9203 H   0  0  0  0  0  0  0  0  0  0  0  0
    2.0903   -4.4017   -0.6848 H   0  0  0  0  0  0  0  0  0  0  0  0
    0.6606   -5.1808   -1.3941 H   0  0  0  0  0  0  0  0  0  0  0  0
    1.5720   -5.4589    1.5616 H   0  0  0  0  0  0  0  0  0  0  0  0
    1.7594   -6.7064    0.2894 H   0  0  0  0  0  0  0  0  0  0  0  0
    0.1266   -6.2455    0.8622 H   0  0  0  0  0  0  0  0  0  0  0  0
  1 18  1  0  0  0  0
  2  4  1  0  0  0  0
  2  3  1  0  0  0  0
  3  1  1  0  0  0  0
  4  5  1  0  0  0  0
  5  1  1  0  0  0  0
  5  6  2  0  0  0  0
  6  7  1  0  0  0  0
  7 30  1  0  0  0  0
  7  8  2  0  0  0  0
  8 31  1  0  0  0  0
  9  8  1  0  0  0  0
  9 32  1  0  0  0  0
 10  9  2  0  0  0  0
 11  6  1  0  0  0  0
 11 10  1  0  0  0  0
 12 11  2  0  0  0  0
 13 34  1  0  0  0  0
 13 12  1  0  0  0  0
 14 13  2  0  0  0  0
 15 16  2  0  0  0  0
 15 14  1  0  0  0  0
 16 17  1  0  0  0  0
 17  4  2  0  0  0  0
 17 12  1  0  0  0  0
 18 38  1  6  0  0  0
 18 25  1  0  0  0  0
 19 20  1  0  0  0  0
 19 18  1  0  0  0  0
 20 39  1  0  0  0  0
 21 40  1  0  0  0  0
 21 20  2  0  0  0  0
 22 21  1  0  0  0  0
 23 22  2  0  0  0  0
 23 24  1  0  0  0  0
 24 19  2  0  0  0  0
 25 48  1  0  0  0  0
 25 45  1  0  0  0  0
 25 44  1  0  0  0  0
 26  2  1  0  0  0  0
 26 27  1  0  0  0  0
 27 49  1  0  0  0  0
 27 50  1  0  0  0  0
 28 27  1  0  0  0  0
 28 29  1  0  0  0  0
 29 55  1  0  0  0  0
 29 53  1  0  0  0  0
 33 10  1  0  0  0  0
 35 14  1  0  0  0  0
 36 15  1  0  0  0  0
 37 16  1  0  0  0  0
 41 22  1  0  0  0  0
 42 23  1  0  0  0  0
 43 24  1  0  0  0  0
 46 26  1  0  0  0  0
 47 26  1  0  0  0  0
 51 28  1  0  0  0  0
 52 28  1  0  0  0  0
 54 29  1  0  0  0  0
M  END
