4
 OpenBabel05122313113D

 50 53  0  0  0  0  0  0  0  0999 V2000
    0.3289   -0.8562    0.6420 P   0  0  0  0  0  4  0  0  0  0  0  0
    1.0123    0.4761   -0.6509 B   0  0  0  0  0  0  0  0  0  0  0  0
    0.4372    0.1092   -1.6603 H   0  0  0  0  0  0  0  0  0  0  0  0
   -1.3182   -0.4590    1.3000 C   0  0  0  0  0  3  0  0  0  0  0  0
   -1.1976    0.5735    1.6750 H   0  0  0  0  0  0  0  0  0  0  0  0
   -1.4863   -1.1029    2.1878 H   0  0  0  0  0  0  0  0  0  0  0  0
    0.2652   -2.5273   -0.1297 C   0  0  0  0  0  0  0  0  0  0  0  0
    0.1873   -3.6651    0.7038 C   0  0  0  0  0  0  0  0  0  0  0  0
    0.2244   -3.5464    1.7981 H   0  0  0  0  0  0  0  0  0  0  0  0
    0.0829   -4.9468    0.1468 C   0  0  0  0  0  0  0  0  0  0  0  0
    0.0175   -5.8260    0.8055 H   0  0  0  0  0  0  0  0  0  0  0  0
    0.0727   -5.1072   -1.2497 C   0  0  0  0  0  0  0  0  0  0  0  0
   -0.0022   -6.1139   -1.6881 H   0  0  0  0  0  0  0  0  0  0  0  0
    0.1690   -3.9813   -2.0812 C   0  0  0  0  0  0  0  0  0  0  0  0
    0.1738   -4.0992   -3.1752 H   0  0  0  0  0  0  0  0  0  0  0  0
    0.2615   -2.6937   -1.5276 C   0  0  0  0  0  0  0  0  0  0  0  0
    0.3299   -1.8165   -2.1818 H   0  0  0  0  0  0  0  0  0  0  0  0
    1.4730   -1.1527    2.0534 C   0  0  0  0  0  0  0  0  0  0  0  0
    1.1991   -0.6753    3.3481 C   0  0  0  0  0  0  0  0  0  0  0  0
    0.2521   -0.1571    3.5545 H   0  0  0  0  0  0  0  0  0  0  0  0
    2.1409   -0.8394    4.3752 C   0  0  0  0  0  0  0  0  0  0  0  0
    1.9177   -0.4608    5.3841 H   0  0  0  0  0  0  0  0  0  0  0  0
    3.3664   -1.4711    4.1151 C   0  0  0  0  0  0  0  0  0  0  0  0
    4.1083   -1.5891    4.9193 H   0  0  0  0  0  0  0  0  0  0  0  0
    3.6443   -1.9521    2.8254 C   0  0  0  0  0  0  0  0  0  0  0  0
    4.6032   -2.4493    2.6146 H   0  0  0  0  0  0  0  0  0  0  0  0
    2.7015   -1.8017    1.7996 C   0  0  0  0  0  0  0  0  0  0  0  0
    2.9226   -2.1891    0.7937 H   0  0  0  0  0  0  0  0  0  0  0  0
    2.6088    0.2626   -0.8206 C   0  0  0  0  0  0  0  0  0  0  0  0
    3.1265    1.3623    1.2294 F   0  0  0  0  0  0  0  0  0  0  0  0
    3.5443    0.7069    0.1312 C   0  0  0  0  0  0  0  0  0  0  0  0
    5.7694    0.9009    0.9759 F   0  0  0  0  0  0  0  0  0  0  0  0
    4.9260    0.4816    0.0238 C   0  0  0  0  0  0  0  0  0  0  0  0
    5.4193   -0.2086   -1.0949 C   0  0  0  0  0  0  0  0  0  0  0  0
    6.7311   -0.4371   -1.2200 F   0  0  0  0  0  0  0  0  0  0  0  0
    4.9968   -1.3022   -3.1586 F   0  0  0  0  0  0  0  0  0  0  0  0
    4.5276   -0.6557   -2.0833 C   0  0  0  0  0  0  0  0  0  0  0  0
    2.3581   -0.8568   -2.9238 F   0  0  0  0  0  0  0  0  0  0  0  0
    3.1516   -0.4094   -1.9312 C   0  0  0  0  0  0  0  0  0  0  0  0
    0.5313    1.9941   -0.3426 C   0  0  0  0  0  0  0  0  0  0  0  0
    0.6283    1.9212    2.0477 F   0  0  0  0  0  0  0  0  0  0  0  0
    0.3884    2.6125    0.9092 C   0  0  0  0  0  0  0  0  0  0  0  0
   -0.1685    4.4670    2.3077 F   0  0  0  0  0  0  0  0  0  0  0  0
   -0.0407    3.9394    1.0826 C   0  0  0  0  0  0  0  0  0  0  0  0
   -0.7634    5.9737    0.0877 F   0  0  0  0  0  0  0  0  0  0  0  0
   -0.3518    4.7095   -0.0490 C   0  0  0  0  0  0  0  0  0  0  0  0
   -0.5147    4.8704   -2.4106 F   0  0  0  0  0  0  0  0  0  0  0  0
   -0.2222    4.1407   -1.3270 C   0  0  0  0  0  0  0  0  0  0  0  0
    0.3282    2.3317   -2.6972 F   0  0  0  0  0  0  0  0  0  0  0  0
    0.2159    2.8100   -1.4481 C   0  0  0  0  0  0  0  0  0  0  0  0
  1  4  1  0  0  0  0
  1 18  1  0  0  0  0
  2 40  1  0  0  0  0
  2  1  1  0  0  0  0
  3  2  1  0  0  0  0
  4  5  1  0  0  0  0
  4  6  1  0  0  0  0
  7  1  1  0  0  0  0
  7  8  1  0  0  0  0
  8  9  1  0  0  0  0
 10  8  2  0  0  0  0
 10 11  1  0  0  0  0
 12 10  1  0  0  0  0
 13 12  1  0  0  0  0
 14 16  1  0  0  0  0
 14 12  2  0  0  0  0
 15 14  1  0  0  0  0
 16  7  2  0  0  0  0
 17 16  1  0  0  0  0
 18 19  1  0  0  0  0
 19 20  1  0  0  0  0
 19 21  2  0  0  0  0
 21 22  1  0  0  0  0
 23 21  1  0  0  0  0
 23 24  1  0  0  0  0
 25 23  2  0  0  0  0
 26 25  1  0  0  0  0
 27 18  2  0  0  0  0
 27 25  1  0  0  0  0
 28 27  1  0  0  0  0
 29  2  1  0  0  0  0
 29 31  1  0  0  0  0
 31 30  1  0  0  0  0
 33 31  2  0  0  0  0
 33 32  1  0  0  0  0
 34 33  1  0  0  0  0
 35 34  1  0  0  0  0
 36 37  1  0  0  0  0
 37 39  1  0  0  0  0
 37 34  2  0  0  0  0
 38 39  1  0  0  0  0
 39 29  2  0  0  0  0
 40 42  1  0  0  0  0
 42 44  2  0  0  0  0
 42 41  1  0  0  0  0
 44 43  1  0  0  0  0
 46 45  1  0  0  0  0
 46 44  1  0  0  0  0
 47 48  1  0  0  0  0
 48 46  2  0  0  0  0
 49 50  1  0  0  0  0
 50 48  1  0  0  0  0
 50 40  2  0  0  0  0
M  END
