1
 OpenBabel05122313113D

 25 26  0  0  0  0  0  0  0  0999 V2000
   -1.1961    0.9126   -0.0328 C   0  0  0  0  0  2  0  0  0  0  0  0
   -0.2904    2.0456   -0.3920 C   0  0  0  0  0  0  0  0  0  0  0  0
    0.6332    2.5768    0.5349 C   0  0  0  0  0  0  0  0  0  0  0  0
    0.6871    2.1549    1.5485 H   0  0  0  0  0  0  0  0  0  0  0  0
    1.4909    3.6243    0.1653 C   0  0  0  0  0  0  0  0  0  0  0  0
    2.2013    4.0300    0.9025 H   0  0  0  0  0  0  0  0  0  0  0  0
    1.4517    4.1520   -1.1349 C   0  0  0  0  0  0  0  0  0  0  0  0
    2.1343    4.9644   -1.4253 H   0  0  0  0  0  0  0  0  0  0  0  0
    0.5361    3.6293   -2.0626 C   0  0  0  0  0  0  0  0  0  0  0  0
    0.5001    4.0286   -3.0877 H   0  0  0  0  0  0  0  0  0  0  0  0
   -0.3335    2.5940   -1.6941 C   0  0  0  0  0  0  0  0  0  0  0  0
   -1.0379    2.1753   -2.4291 H   0  0  0  0  0  0  0  0  0  0  0  0
   -2.4181    1.3100    0.3257 N   0  0  0  0  0  0  0  0  0  0  0  0
   -2.8852    2.7211    0.4210 C   0  0  0  0  0  0  0  0  0  0  0  0
   -3.0242    3.1292   -0.6030 H   0  0  0  0  0  0  0  0  0  0  0  0
   -2.1178    3.3430    0.9190 H   0  0  0  0  0  0  0  0  0  0  0  0
   -4.2126    2.6233    1.1736 C   0  0  0  0  0  0  0  0  0  0  0  0
   -4.8816    3.4799    0.9631 H   0  0  0  0  0  0  0  0  0  0  0  0
   -4.0300    2.6005    2.2689 H   0  0  0  0  0  0  0  0  0  0  0  0
   -4.7680    1.2730    0.7009 C   0  0  0  0  0  0  0  0  0  0  0  0
   -5.5592    0.8627    1.3569 H   0  0  0  0  0  0  0  0  0  0  0  0
   -5.1953    1.3708   -0.3191 H   0  0  0  0  0  0  0  0  0  0  0  0
   -3.5213    0.3865    0.6664 C   0  0  0  0  0  0  0  0  0  0  0  0
   -3.3169   -0.0764    1.6555 H   0  0  0  0  0  0  0  0  0  0  0  0
   -3.5588   -0.4323   -0.0748 H   0  0  0  0  0  0  0  0  0  0  0  0
  1 13  1  0  0  0  0
  2  1  1  0  0  0  0
  2  3  1  0  0  0  0
  3  4  1  0  0  0  0
  5  3  2  0  0  0  0
  5  6  1  0  0  0  0
  7  5  1  0  0  0  0
  8  7  1  0  0  0  0
  9 11  1  0  0  0  0
  9  7  2  0  0  0  0
 10  9  1  0  0  0  0
 11  2  2  0  0  0  0
 12 11  1  0  0  0  0
 13 14  1  0  0  0  0
 13 23  1  0  0  0  0
 14 16  1  0  0  0  0
 14 17  1  0  0  0  0
 15 14  1  0  0  0  0
 17 19  1  0  0  0  0
 18 17  1  0  0  0  0
 20 17  1  0  0  0  0
 20 21  1  0  0  0  0
 22 20  1  0  0  0  0
 23 20  1  0  0  0  0
 23 24  1  0  0  0  0
 25 23  1  0  0  0  0
M  END
