1
 OpenBabel05122313113D

 20 20  0  0  0  0  0  0  0  0999 V2000
    1.2195   -0.6232    1.2322 C   0  0  0  0  0  2  0  0  0  0  0  0
    2.5573   -0.6388    1.0413 N   0  0  0  0  0  0  0  0  0  0  0  0
    3.1991   -1.0257   -0.2126 C   0  0  0  0  0  0  0  0  0  0  0  0
    2.4364   -1.4088   -0.9083 H   0  0  0  0  0  0  0  0  0  0  0  0
    3.9185   -1.8449    0.0052 H   0  0  0  0  0  0  0  0  0  0  0  0
    3.9497    0.1745   -0.7912 C   0  0  0  0  0  0  0  0  0  0  0  0
    4.4932   -0.1185   -1.7109 H   0  0  0  0  0  0  0  0  0  0  0  0
    3.2137    0.9721   -1.0555 H   0  0  0  0  0  0  0  0  0  0  0  0
    4.9186    0.6637    0.1277 O   0  0  0  0  0  0  0  0  0  0  0  0
    4.3149    1.0366    1.3516 C   0  0  0  0  0  0  0  0  0  0  0  0
    3.6048    1.8856    1.1960 H   0  0  0  0  0  0  0  0  0  0  0  0
    5.1279    1.3774    2.0243 H   0  0  0  0  0  0  0  0  0  0  0  0
    3.5529   -0.1276    1.9986 C   0  0  0  0  0  0  0  0  0  0  0  0
    4.2611   -0.9503    2.2376 H   0  0  0  0  0  0  0  0  0  0  0  0
    3.0494    0.1900    2.9263 H   0  0  0  0  0  0  0  0  0  0  0  0
    0.9920   -0.1893    2.4957 O   0  0  0  0  0  0  0  0  0  0  0  0
   -0.3117   -0.1609    3.0629 C   0  0  0  0  0  0  0  0  0  0  0  0
   -1.0301    0.3455    2.3896 H   0  0  0  0  0  0  0  0  0  0  0  0
   -0.2125    0.4003    4.0116 H   0  0  0  0  0  0  0  0  0  0  0  0
   -0.6737   -1.1855    3.2752 H   0  0  0  0  0  0  0  0  0  0  0  0
  1 16  1  0  0  0  0
  2  1  1  0  0  0  0
  2 13  1  0  0  0  0
  3  5  1  0  0  0  0
  3  2  1  0  0  0  0
  4  3  1  0  0  0  0
  6  3  1  0  0  0  0
  6  9  1  0  0  0  0
  7  6  1  0  0  0  0
  8  6  1  0  0  0  0
  9 10  1  0  0  0  0
 10 13  1  0  0  0  0
 10 12  1  0  0  0  0
 11 10  1  0  0  0  0
 13 14  1  0  0  0  0
 13 15  1  0  0  0  0
 16 17  1  0  0  0  0
 17 20  1  0  0  0  0
 17 19  1  0  0  0  0
 18 17  1  0  0  0  0
M  END
