3
 OpenBabel05122313113D

 29 29  0  0  1  0  0  0  0  0999 V2000
    6.1443   -0.5005    0.1165 O   0  0  0  0  0  0  0  0  0  0  0  0
    5.0295    1.2968   -0.6847 O   0  0  0  0  0  0  0  0  0  0  0  0
    1.3456   -0.3084    0.7298 C   0  0  0  0  0  3  0  0  0  0  0  0
    1.2581    0.3719    1.5964 H   0  0  0  0  0  0  0  0  0  0  0  0
    0.7780   -1.6299    0.9366 C   0  0  0  0  0  3  0  0  0  0  0  0
    0.3726   -1.8604    1.9381 H   0  0  0  0  0  0  0  0  0  0  0  0
    1.4101   -2.7807    0.2661 C   0  0  0  0  0  0  0  0  0  0  0  0
    1.0822   -3.7967    0.5470 H   0  0  0  0  0  0  0  0  0  0  0  0
    2.3927   -2.6320   -0.6523 C   0  0  0  0  0  0  0  0  0  0  0  0
    2.8380   -3.5170   -1.1349 H   0  0  0  0  0  0  0  0  0  0  0  0
    2.8774   -1.2724   -1.0753 C   0  0  0  0  0  0  0  0  0  0  0  0
    2.3447   -0.9871   -2.0089 H   0  0  0  0  0  0  0  0  0  0  0  0
    3.9493   -1.3307   -1.3625 H   0  0  0  0  0  0  0  0  0  0  0  0
    2.6649   -0.1563   -0.0193 C   0  0  2  0  0  0  0  0  0  0  0  0
    2.6665    0.8070   -0.5632 H   0  0  0  0  0  0  0  0  0  0  0  0
    3.8912   -0.0089    0.9693 C   0  0  0  0  0  0  0  0  0  0  0  0
    3.7217    1.2507    1.8495 C   0  0  0  0  0  0  0  0  0  0  0  0
    3.4887    2.1435    1.2370 H   0  0  0  0  0  0  0  0  0  0  0  0
    4.6486    1.4544    2.4237 H   0  0  0  0  0  0  0  0  0  0  0  0
    2.9047    1.1052    2.5831 H   0  0  0  0  0  0  0  0  0  0  0  0
    4.1015   -1.2422    1.8554 C   0  0  0  0  0  0  0  0  0  0  0  0
    3.1937   -1.4303    2.4604 H   0  0  0  0  0  0  0  0  0  0  0  0
    4.9605   -1.0892    2.5383 H   0  0  0  0  0  0  0  0  0  0  0  0
    4.3084   -2.1450    1.2525 H   0  0  0  0  0  0  0  0  0  0  0  0
    5.1469    0.1976    0.1158 C   0  0  0  0  0  0  0  0  0  0  0  0
    6.1487    1.5548   -1.5350 C   0  0  0  0  0  0  0  0  0  0  0  0
    6.3182    0.7109   -2.2349 H   0  0  0  0  0  0  0  0  0  0  0  0
    7.0751    1.6974   -0.9422 H   0  0  0  0  0  0  0  0  0  0  0  0
    5.9048    2.4748   -2.0966 H   0  0  0  0  0  0  0  0  0  0  0  0
  2 25  1  0  0  0  0
  3  5  1  0  0  0  0
  3  4  1  0  0  0  0
  5  6  1  0  0  0  0
  7  8  1  0  0  0  0
  7  5  1  0  0  0  0
  9  7  2  0  0  0  0
 10  9  1  0  0  0  0
 11  9  1  0  0  0  0
 11 14  1  0  0  0  0
 12 11  1  0  0  0  0
 13 11  1  0  0  0  0
 14 15  1  6  0  0  0
 14  3  1  0  0  0  0
 14 16  1  0  0  0  0
 16 17  1  0  0  0  0
 16 21  1  0  0  0  0
 17 19  1  0  0  0  0
 17 20  1  0  0  0  0
 18 17  1  0  0  0  0
 21 22  1  0  0  0  0
 21 23  1  0  0  0  0
 24 21  1  0  0  0  0
 25  1  2  0  0  0  0
 25 16  1  0  0  0  0
 26 28  1  0  0  0  0
 26  2  1  0  0  0  0
 27 26  1  0  0  0  0
 29 26  1  0  0  0  0
M  END
