19
 OpenBabel05122313113D

 31 32  0  0  0  0  0  0  0  0999 V2000
   -0.8444    1.2955   -0.4536 S   0  0  0  0  0  0  0  0  0  0  0  0
   -0.5910   -1.8044   -0.0591 S   0  0  0  0  0  1  0  0  0  0  0  0
   -0.0080    0.0451    3.0175 N   0  0  0  0  0  0  0  0  0  0  0  0
   -3.5509    2.5305    1.8465 N   0  0  0  0  0  0  0  0  0  0  0  0
    0.7542    0.5653   -0.3700 C   0  0  0  0  0  0  0  0  0  0  0  0
    0.8183   -0.8062   -0.1368 C   0  0  0  0  0  0  0  0  0  0  0  0
    1.8834    1.4960   -0.5604 C   0  0  0  0  0  0  0  0  0  0  0  0
    1.8592    2.7895    0.0138 C   0  0  0  0  0  0  0  0  0  0  0  0
    2.9264    3.6780   -0.1739 C   0  0  0  0  0  0  0  0  0  0  0  0
    4.0428    3.2907   -0.9311 C   0  0  0  0  0  0  0  0  0  0  0  0
    4.0786    2.0096   -1.5081 C   0  0  0  0  0  0  0  0  0  0  0  0
    3.0099    1.1234   -1.3340 C   0  0  0  0  0  0  0  0  0  0  0  0
    2.0964   -1.5067    0.1459 C   0  0  0  0  0  0  0  0  0  0  0  0
    2.9400   -1.0435    1.1801 C   0  0  0  0  0  0  0  0  0  0  0  0
    4.1416   -1.7069    1.4553 C   0  0  0  0  0  0  0  0  0  0  0  0
    4.5183   -2.8336    0.7046 C   0  0  0  0  0  0  0  0  0  0  0  0
    3.6778   -3.3063   -0.3159 C   0  0  0  0  0  0  0  0  0  0  0  0
    2.4689   -2.6522   -0.5907 C   0  0  0  0  0  0  0  0  0  0  0  0
   -1.6755    0.8448    1.1869 C   0  0  0  0  0  3  0  0  0  0  0  0
   -0.7796    0.4124    2.2088 C   0  0  0  0  0  0  0  0  0  0  0  0
   -2.6861    1.7777    1.5776 C   0  0  0  0  0  0  0  0  0  0  0  0
    0.9991    3.0900    0.6320 H   0  0  0  0  0  0  0  0  0  0  0  0
    2.8893    4.6769    0.2863 H   0  0  0  0  0  0  0  0  0  0  0  0
    4.8838    3.9860   -1.0737 H   0  0  0  0  0  0  0  0  0  0  0  0
    4.9459    1.7008   -2.1113 H   0  0  0  0  0  0  0  0  0  0  0  0
    3.0366    0.1298   -1.8032 H   0  0  0  0  0  0  0  0  0  0  0  0
    2.6256   -0.1768    1.7789 H   0  0  0  0  0  0  0  0  0  0  0  0
    4.7880   -1.3445    2.2688 H   0  0  0  0  0  0  0  0  0  0  0  0
    5.4663   -3.3491    0.9212 H   0  0  0  0  0  0  0  0  0  0  0  0
    3.9651   -4.1920   -0.9027 H   0  0  0  0  0  0  0  0  0  0  0  0
    1.8034   -3.0156   -1.3882 H   0  0  0  0  0  0  0  0  0  0  0  0
  1  5  1  0  0  0  0
  1 19  1  0  0  0  0
  5  6  2  0  0  0  0
  6  2  1  0  0  0  0
  6 13  1  0  0  0  0
  7  5  1  0  0  0  0
  7  8  1  0  0  0  0
  8 22  1  0  0  0  0
  9  8  2  0  0  0  0
  9 23  1  0  0  0  0
 10  9  1  0  0  0  0
 11 12  1  0  0  0  0
 11 10  2  0  0  0  0
 12  7  2  0  0  0  0
 13 14  1  0  0  0  0
 14 15  2  0  0  0  0
 14 27  1  0  0  0  0
 15 28  1  0  0  0  0
 16 29  1  0  0  0  0
 16 15  1  0  0  0  0
 17 16  2  0  0  0  0
 18 17  1  0  0  0  0
 18 13  2  0  0  0  0
 19 21  1  0  0  0  0
 19 20  1  0  0  0  0
 20  3  3  0  0  0  0
 21  4  3  0  0  0  0
 24 10  1  0  0  0  0
 25 11  1  0  0  0  0
 26 12  1  0  0  0  0
 30 17  1  0  0  0  0
 31 18  1  0  0  0  0
M  END
