12
 OpenBabel05122313113D

 54 56  0  0  0  0  0  0  0  0999 V2000
   -2.6413   -0.5554    0.7476 P   0  0  0  0  0  0  0  0  0  0  0  0
    5.3177    0.2564   -0.2712 Si  0  0  0  0  0  0  0  0  0  0  0  0
    2.5294   -0.0392   -0.5926 N   0  0  0  0  0  0  0  0  0  0  0  0
   -1.1017    0.2485    0.0843 C   0  0  0  0  0  3  0  0  0  0  0  0
   -1.2080    1.5276   -0.3976 C   0  0  0  0  0  0  0  0  0  0  0  0
   -0.1769    2.4293   -0.9323 C   0  0  0  0  0  0  0  0  0  0  0  0
   -0.5742    3.7025   -1.4073 C   0  0  0  0  0  0  0  0  0  0  0  0
    0.3537    4.6227   -1.9082 C   0  0  0  0  0  0  0  0  0  0  0  0
    1.7231    4.3004   -1.9506 C   0  0  0  0  0  0  0  0  0  0  0  0
    2.1460    3.0434   -1.5044 C   0  0  0  0  0  0  0  0  0  0  0  0
    1.2179    2.0992   -1.0026 C   0  0  0  0  0  0  0  0  0  0  0  0
    1.5598    0.8018   -0.4813 C   0  0  0  0  0  3  0  0  0  0  0  0
    3.7540   -0.0204   -1.3599 C   0  0  0  0  0  0  0  0  0  0  0  0
    5.6415   -1.3405    0.6901 C   0  0  0  0  0  0  0  0  0  0  0  0
    5.0270    1.7305    0.8744 C   0  0  0  0  0  0  0  0  0  0  0  0
    6.7610    0.6062   -1.4426 C   0  0  0  0  0  0  0  0  0  0  0  0
   -3.4136   -1.2709   -0.7834 C   0  0  0  0  0  0  0  0  0  0  0  0
   -3.1849   -0.7720   -2.0831 C   0  0  0  0  0  0  0  0  0  0  0  0
   -3.8192   -1.3538   -3.1924 C   0  0  0  0  0  0  0  0  0  0  0  0
   -4.6931   -2.4394   -3.0183 C   0  0  0  0  0  0  0  0  0  0  0  0
   -4.9317   -2.9405   -1.7284 C   0  0  0  0  0  0  0  0  0  0  0  0
   -4.2924   -2.3626   -0.6210 C   0  0  0  0  0  0  0  0  0  0  0  0
   -3.8179    0.8480    1.0793 C   0  0  0  0  0  0  0  0  0  0  0  0
   -3.7572    1.4334    2.3638 C   0  0  0  0  0  0  0  0  0  0  0  0
   -4.5695    2.5255    2.6990 C   0  0  0  0  0  0  0  0  0  0  0  0
   -5.4742    3.0441    1.7574 C   0  0  0  0  0  0  0  0  0  0  0  0
   -5.5573    2.4613    0.4834 C   0  0  0  0  0  0  0  0  0  0  0  0
   -4.7355    1.3734    0.1450 C   0  0  0  0  0  0  0  0  0  0  0  0
   -2.2037    2.0178   -0.4022 H   0  0  0  0  0  0  0  0  0  0  0  0
   -1.6424    3.9686   -1.3640 H   0  0  0  0  0  0  0  0  0  0  0  0
    0.0102    5.6074   -2.2608 H   0  0  0  0  0  0  0  0  0  0  0  0
    2.4550    5.0300   -2.3289 H   0  0  0  0  0  0  0  0  0  0  0  0
    3.2163    2.7923   -1.5162 H   0  0  0  0  0  0  0  0  0  0  0  0
    3.7157    0.7408   -2.1711 H   0  0  0  0  0  0  0  0  0  0  0  0
    3.8903   -1.0150   -1.8408 H   0  0  0  0  0  0  0  0  0  0  0  0
    6.4281   -1.2041    1.4601 H   0  0  0  0  0  0  0  0  0  0  0  0
    5.9790   -2.1410   -0.0003 H   0  0  0  0  0  0  0  0  0  0  0  0
    4.7223   -1.7000    1.1945 H   0  0  0  0  0  0  0  0  0  0  0  0
    5.8667    1.8484    1.5896 H   0  0  0  0  0  0  0  0  0  0  0  0
    4.9420    2.6733    0.2964 H   0  0  0  0  0  0  0  0  0  0  0  0
    4.0932    1.6123    1.4591 H   0  0  0  0  0  0  0  0  0  0  0  0
    7.7064    0.7318   -0.8752 H   0  0  0  0  0  0  0  0  0  0  0  0
    6.5920    1.5347   -2.0257 H   0  0  0  0  0  0  0  0  0  0  0  0
    6.9082   -0.2267   -2.1606 H   0  0  0  0  0  0  0  0  0  0  0  0
   -2.4985    0.0782   -2.2191 H   0  0  0  0  0  0  0  0  0  0  0  0
   -3.6292   -0.9558   -4.2015 H   0  0  0  0  0  0  0  0  0  0  0  0
   -5.1867   -2.8972   -3.8892 H   0  0  0  0  0  0  0  0  0  0  0  0
   -5.6149   -3.7917   -1.5845 H   0  0  0  0  0  0  0  0  0  0  0  0
   -4.4733   -2.7601    0.3910 H   0  0  0  0  0  0  0  0  0  0  0  0
   -3.0673    1.0153    3.1157 H   0  0  0  0  0  0  0  0  0  0  0  0
   -4.5047    2.9682    3.7051 H   0  0  0  0  0  0  0  0  0  0  0  0
   -6.1189    3.8968    2.0201 H   0  0  0  0  0  0  0  0  0  0  0  0
   -6.2693    2.8567   -0.2579 H   0  0  0  0  0  0  0  0  0  0  0  0
   -4.8112    0.9249   -0.8570 H   0  0  0  0  0  0  0  0  0  0  0  0
  1 23  1  0  0  0  0
  2 14  1  0  0  0  0
  2 15  1  0  0  0  0
  3 12  2  0  0  0  0
  4  1  1  0  0  0  0
  5  4  2  0  0  0  0
  6  5  1  0  0  0  0
  7 30  1  0  0  0  0
  7  6  2  0  0  0  0
  8  7  1  0  0  0  0
  9  8  2  0  0  0  0
  9 10  1  0  0  0  0
 10 11  2  0  0  0  0
 11  6  1  0  0  0  0
 11 12  1  0  0  0  0
 13  3  1  0  0  0  0
 13  2  1  0  0  0  0
 14 38  1  0  0  0  0
 14 36  1  0  0  0  0
 15 41  1  0  0  0  0
 15 39  1  0  0  0  0
 16 42  1  0  0  0  0
 16  2  1  0  0  0  0
 17 22  1  0  0  0  0
 17  1  1  0  0  0  0
 18 17  2  0  0  0  0
 19 20  2  0  0  0  0
 19 18  1  0  0  0  0
 20 21  1  0  0  0  0
 21 48  1  0  0  0  0
 21 22  2  0  0  0  0
 22 49  1  0  0  0  0
 23 24  1  0  0  0  0
 24 25  2  0  0  0  0
 24 50  1  0  0  0  0
 25 51  1  0  0  0  0
 26 52  1  0  0  0  0
 26 25  1  0  0  0  0
 27 26  2  0  0  0  0
 28 27  1  0  0  0  0
 28 23  2  0  0  0  0
 29  5  1  0  0  0  0
 31  8  1  0  0  0  0
 32  9  1  0  0  0  0
 33 10  1  0  0  0  0
 34 13  1  0  0  0  0
 35 13  1  0  0  0  0
 37 14  1  0  0  0  0
 40 15  1  0  0  0  0
 43 16  1  0  0  0  0
 44 16  1  0  0  0  0
 45 18  1  0  0  0  0
 46 19  1  0  0  0  0
 47 20  1  0  0  0  0
 53 27  1  0  0  0  0
 54 28  1  0  0  0  0
M  END
