10
 OpenBabel05122313113D

 36 37  0  0  0  0  0  0  0  0999 V2000
    0.7824    0.3917    0.7068 P   0  0  0  0  0  0  0  0  0  0  0  0
    0.9485    0.6382    2.5555 C   0  0  0  0  0  0  0  0  0  0  0  0
    1.4627   -0.2754    2.9168 H   0  0  0  0  0  0  0  0  0  0  0  0
    1.5991    1.4935    2.8285 H   0  0  0  0  0  0  0  0  0  0  0  0
   -0.4731    0.7224    3.1165 C   0  0  0  0  0  0  0  0  0  0  0  0
   -0.4577    0.5749    4.2224 H   0  0  0  0  0  0  0  0  0  0  0  0
   -0.8804    1.7429    2.9500 H   0  0  0  0  0  0  0  0  0  0  0  0
   -1.3867   -0.2843    2.4370 C   0  0  0  0  0  3  0  0  0  0  0  0
   -2.4663   -0.0873    2.5949 H   0  0  0  0  0  0  0  0  0  0  0  0
   -1.0105   -1.6684    2.2640 C   0  0  0  0  0  3  0  0  0  0  0  0
   -0.1064   -2.1225    2.7092 H   0  0  0  0  0  0  0  0  0  0  0  0
   -1.9124   -2.3860    1.4092 C   0  0  0  0  0  3  0  0  0  0  0  0
   -2.9992   -2.2007    1.5008 H   0  0  0  0  0  0  0  0  0  0  0  0
   -1.6758   -3.4352    1.1549 H   0  0  0  0  0  0  0  0  0  0  0  0
    2.4925   -0.1990    0.2859 C   0  0  0  0  0  0  0  0  0  0  0  0
    3.4113    0.4968   -0.5249 C   0  0  0  0  0  0  0  0  0  0  0  0
    3.1477    1.4862   -0.9268 H   0  0  0  0  0  0  0  0  0  0  0  0
    4.6681   -0.0596   -0.8185 C   0  0  0  0  0  0  0  0  0  0  0  0
    5.3716    0.4958   -1.4581 H   0  0  0  0  0  0  0  0  0  0  0  0
    5.0324   -1.3086   -0.2944 C   0  0  0  0  0  0  0  0  0  0  0  0
    6.0187   -1.7401   -0.5232 H   0  0  0  0  0  0  0  0  0  0  0  0
    4.1288   -2.0047    0.5275 C   0  0  0  0  0  0  0  0  0  0  0  0
    4.4052   -2.9841    0.9479 H   0  0  0  0  0  0  0  0  0  0  0  0
    2.8684   -1.4586    0.8043 C   0  0  0  0  0  0  0  0  0  0  0  0
    2.1482   -2.0182    1.4231 H   0  0  0  0  0  0  0  0  0  0  0  0
    0.8004    2.1090    0.0096 C   0  0  0  0  0  0  0  0  0  0  0  0
    0.6884    2.2551   -1.3921 C   0  0  0  0  0  0  0  0  0  0  0  0
    0.6821    1.3556   -2.0260 H   0  0  0  0  0  0  0  0  0  0  0  0
    0.5778    3.5214   -1.9816 C   0  0  0  0  0  0  0  0  0  0  0  0
    0.5016    3.6102   -3.0764 H   0  0  0  0  0  0  0  0  0  0  0  0
    0.5502    4.6737   -1.1766 C   0  0  0  0  0  0  0  0  0  0  0  0
    0.4471    5.6687   -1.6352 H   0  0  0  0  0  0  0  0  0  0  0  0
    0.6546    4.5436    0.2161 C   0  0  0  0  0  0  0  0  0  0  0  0
    0.6350    5.4392    0.8563 H   0  0  0  0  0  0  0  0  0  0  0  0
    0.7879    3.2742    0.8037 C   0  0  0  0  0  0  0  0  0  0  0  0
    0.8733    3.1996    1.8974 H   0  0  0  0  0  0  0  0  0  0  0  0
  1  2  1  0  0  0  0
  2  4  1  0  0  0  0
  2  3  1  0  0  0  0
  2  5  1  0  0  0  0
  5  6  1  0  0  0  0
  7  5  1  0  0  0  0
  8  9  1  0  0  0  0
  8  5  1  0  0  0  0
 10  8  1  0  0  0  0
 10 11  1  0  0  0  0
 12 13  1  0  0  0  0
 12 10  1  0  0  0  0
 14 12  1  0  0  0  0
 15  1  1  0  0  0  0
 15 24  1  0  0  0  0
 16 15  2  0  0  0  0
 17 16  1  0  0  0  0
 18 16  1  0  0  0  0
 18 20  2  0  0  0  0
 19 18  1  0  0  0  0
 20 22  1  0  0  0  0
 21 20  1  0  0  0  0
 22 24  2  0  0  0  0
 22 23  1  0  0  0  0
 24 25  1  0  0  0  0
 26  1  1  0  0  0  0
 26 35  1  0  0  0  0
 27 26  2  0  0  0  0
 28 27  1  0  0  0  0
 29 27  1  0  0  0  0
 29 31  2  0  0  0  0
 30 29  1  0  0  0  0
 31 33  1  0  0  0  0
 32 31  1  0  0  0  0
 33 35  2  0  0  0  0
 33 34  1  0  0  0  0
 35 36  1  0  0  0  0
M  END
