13
 OpenBabel05122313113D

 45 51  0  0  1  0  0  0  0  0999 V2000
   -1.8787    0.9849    0.0006 C   0  0  2  0  0  0  0  0  0  0  0  0
   -2.2544   -0.2200   -0.9516 C   0  0  1  0  0  0  0  0  0  0  0  0
   -2.1900   -0.0445   -2.0350 H   0  0  0  0  0  0  0  0  0  0  0  0
   -1.1857    2.2305   -0.6520 C   0  0  0  0  0  0  0  0  0  0  0  0
   -1.8811    2.7308   -1.9347 C   0  0  0  0  0  0  0  0  0  0  0  0
   -1.2518    3.5101   -2.4088 H   0  0  0  0  0  0  0  0  0  0  0  0
   -2.8661    3.1712   -1.6971 H   0  0  0  0  0  0  0  0  0  0  0  0
   -2.0492    1.9360   -2.6857 H   0  0  0  0  0  0  0  0  0  0  0  0
   -1.1515    3.4140    0.3302 C   0  0  0  0  0  0  0  0  0  0  0  0
   -0.8584    3.1071    1.3487 H   0  0  0  0  0  0  0  0  0  0  0  0
   -2.1595    3.8608    0.4099 H   0  0  0  0  0  0  0  0  0  0  0  0
   -0.4513    4.1924   -0.0322 H   0  0  0  0  0  0  0  0  0  0  0  0
    0.2117    1.7165   -1.0053 C   0  0  1  0  0  3  0  0  0  0  0  0
    1.4300    1.7475   -0.2287 C   0  0  0  0  0  0  0  0  0  0  0  0
    1.8002    2.3420    1.0198 C   0  0  0  0  0  0  0  0  0  0  0  0
    1.0749    2.9201    1.6020 H   0  0  0  0  0  0  0  0  0  0  0  0
    3.0976    2.1910    1.4929 C   0  0  0  0  0  0  0  0  0  0  0  0
    3.3778    2.6579    2.4490 H   0  0  0  0  0  0  0  0  0  0  0  0
    4.0836    1.4531    0.7648 C   0  0  0  0  0  0  0  0  0  0  0  0
    5.1017    1.3666    1.1728 H   0  0  0  0  0  0  0  0  0  0  0  0
    3.7679    0.8606   -0.4502 C   0  0  0  0  0  0  0  0  0  0  0  0
    4.5237    0.3012   -1.0221 H   0  0  0  0  0  0  0  0  0  0  0  0
    2.4463    0.9910   -0.9619 C   0  0  0  0  0  0  0  0  0  0  0  0
    1.8492    0.5015   -2.1577 C   0  0  0  0  0  0  0  0  0  0  0  0
    2.3611   -0.0858   -2.9267 H   0  0  0  0  0  0  0  0  0  0  0  0
    0.5106    0.9572   -2.1921 C   0  0  0  0  0  0  0  0  0  0  0  0
   -0.1883    0.7773   -3.0182 H   0  0  0  0  0  0  0  0  0  0  0  0
   -2.0572   -1.7265   -0.2768 B   0  0  1  0  0  0  0  0  0  0  0  0
   -1.9036   -2.6859   -0.9962 H   0  0  0  0  0  0  0  0  0  0  0  0
   -1.4878   -1.4065    1.3632 B   0  0  0  0  0  0  0  0  0  0  0  0
   -0.8085   -2.1922    2.0008 H   0  0  0  0  0  0  0  0  0  0  0  0
   -1.3478    0.3634    1.4636 B   0  0  2  0  0  0  0  0  0  0  0  0
   -0.5193    1.0036    2.0849 H   0  0  0  0  0  0  0  0  0  0  0  0
   -3.5475    0.7240   -0.2837 B   0  0  1  0  0  0  0  0  0  0  0  0
   -4.1613    1.4862   -0.9846 H   0  0  0  0  0  0  0  0  0  0  0  0
   -3.6782   -1.0344   -0.4447 B   0  0  1  0  0  0  0  0  0  0  0  0
   -4.4395   -1.4655   -1.2780 H   0  0  0  0  0  0  0  0  0  0  0  0
   -3.2041   -1.7758    1.0966 B   0  0  1  0  0  0  0  0  0  0  0  0
   -3.7031   -2.8160    1.4662 H   0  0  0  0  0  0  0  0  0  0  0  0
   -2.7353   -0.4539    2.2086 B   0  0  0  0  0  0  0  0  0  0  0  0
   -2.8744   -0.5082    3.4116 H   0  0  0  0  0  0  0  0  0  0  0  0
   -2.9584    1.0871    1.3425 B   0  0  1  0  0  0  0  0  0  0  0  0
   -3.2079    2.1652    1.8242 H   0  0  0  0  0  0  0  0  0  0  0  0
   -4.1182   -0.2391    1.0898 B   0  0  0  0  0  0  0  0  0  0  0  0
   -5.2716   -0.1446    1.4422 H   0  0  0  0  0  0  0  0  0  0  0  0
  1  4  1  6  0  0  0
  1 32  1  0  0  0  0
  2  3  1  6  0  0  0
  2 36  1  0  0  0  0
  2 28  1  0  0  0  0
  2  1  1  0  0  0  0
  4  9  1  0  0  0  0
  5  7  1  0  0  0  0
  5  4  1  0  0  0  0
  6  5  1  0  0  0  0
  8  5  1  0  0  0  0
  9 11  1  0  0  0  0
  9 10  1  0  0  0  0
 12  9  1  0  0  0  0
 13  4  1  1  0  0  0
 13 14  1  0  0  0  0
 14 15  1  0  0  0  0
 15 17  2  0  0  0  0
 15 16  1  0  0  0  0
 17 18  1  0  0  0  0
 19 20  1  0  0  0  0
 19 17  1  0  0  0  0
 21 19  2  0  0  0  0
 22 21  1  0  0  0  0
 23 21  1  0  0  0  0
 23 14  2  0  0  0  0
 24 23  1  0  0  0  0
 25 24  1  0  0  0  0
 26 24  2  0  0  0  0
 26 13  1  0  0  0  0
 27 26  1  0  0  0  0
 28 29  1  6  0  0  0
 28 30  1  0  0  0  0
 30 31  1  0  0  0  0
 32 33  1  1  0  0  0
 32 40  1  0  0  0  0
 34 35  1  6  0  0  0
 34  1  1  0  0  0  0
 34 42  1  0  0  0  0
 36 37  1  6  0  0  0
 36 34  1  0  0  0  0
 36 28  1  0  0  0  0
 38 30  1  0  0  0  0
 38 39  1  1  0  0  0
 38 40  1  0  0  0  0
 40 41  1  0  0  0  0
 42 32  1  0  0  0  0
 42 43  1  1  0  0  0
 44 38  1  0  0  0  0
 44 42  1  0  0  0  0
 44 45  1  0  0  0  0
M  END
