1
 OpenBabel05122313113D

 21 22  0  0  0  0  0  0  0  0999 V2000
    1.4086    0.8116    0.0044 C   0  0  0  0  0  1  0  0  0  0  0  0
    2.6226    1.0684    0.0028 C   0  0  0  0  0  2  0  0  0  0  0  0
    4.0150    1.3682    0.0006 C   0  0  0  0  0  0  0  0  0  0  0  0
    4.9928    0.3454    0.0022 C   0  0  0  0  0  0  0  0  0  0  0  0
    4.7121   -0.7159    0.0053 H   0  0  0  0  0  0  0  0  0  0  0  0
    4.4858    2.7069   -0.0036 C   0  0  0  0  0  0  0  0  0  0  0  0
    3.7720    3.5427   -0.0051 H   0  0  0  0  0  0  0  0  0  0  0  0
    5.8669    2.9392   -0.0059 C   0  0  0  0  0  0  0  0  0  0  0  0
    6.2470    3.9771   -0.0092 H   0  0  0  0  0  0  0  0  0  0  0  0
    6.7917    1.9698   -0.0044 N   0  0  0  0  0  0  0  0  0  0  0  0
    6.3561    0.6904   -0.0004 C   0  0  0  0  0  0  0  0  0  0  0  0
    7.3987   -0.3773    0.0010 C   0  0  0  0  0  0  0  0  0  0  0  0
    6.9773   -1.6595    0.0052 N   0  0  0  0  0  0  0  0  0  0  0  0
    8.7677   -0.0306   -0.0022 C   0  0  0  0  0  0  0  0  0  0  0  0
    9.0345    1.0352   -0.0055 H   0  0  0  0  0  0  0  0  0  0  0  0
    9.7207   -1.0542   -0.0009 C   0  0  0  0  0  0  0  0  0  0  0  0
   10.7957   -0.8155   -0.0033 H   0  0  0  0  0  0  0  0  0  0  0  0
    9.2837   -2.3880    0.0035 C   0  0  0  0  0  0  0  0  0  0  0  0
    9.9962   -3.2264    0.0046 H   0  0  0  0  0  0  0  0  0  0  0  0
    7.8992   -2.6294    0.0064 C   0  0  0  0  0  0  0  0  0  0  0  0
    7.5176   -3.6668    0.0099 H   0  0  0  0  0  0  0  0  0  0  0  0
  2  1  1  0  0  0  0
  3  4  1  0  0  0  0
  3  2  1  0  0  0  0
  4  5  1  0  0  0  0
  6  3  2  0  0  0  0
  7  6  1  0  0  0  0
  8 10  2  0  0  0  0
  8  6  1  0  0  0  0
  9  8  1  0  0  0  0
 10 11  1  0  0  0  0
 11 12  1  0  0  0  0
 11  4  2  0  0  0  0
 12 13  1  0  0  0  0
 13 20  2  0  0  0  0
 14 16  1  0  0  0  0
 14 12  2  0  0  0  0
 15 14  1  0  0  0  0
 16 18  2  0  0  0  0
 17 16  1  0  0  0  0
 18 19  1  0  0  0  0
 18 20  1  0  0  0  0
 20 21  1  0  0  0  0
M  END
