1
 OpenBabel05122313113D

 36 37  0  0  1  0  0  0  0  0999 V2000
   -0.5424    0.2387   -0.1705 C   0  0  0  0  0  3  0  0  0  0  0  0
   -0.0374    1.4530   -0.4038 O   0  0  0  0  0  0  0  0  0  0  0  0
   -0.7870    2.6744   -0.3483 C   0  0  0  0  0  0  0  0  0  0  0  0
   -0.9835    2.9141    0.7175 H   0  0  0  0  0  0  0  0  0  0  0  0
   -1.7639    2.5330   -0.8493 H   0  0  0  0  0  0  0  0  0  0  0  0
    0.0428    3.7537   -1.0158 C   0  0  0  0  0  0  0  0  0  0  0  0
    1.0255    3.8654   -0.5163 H   0  0  0  0  0  0  0  0  0  0  0  0
   -0.4914    4.7229   -0.9648 H   0  0  0  0  0  0  0  0  0  0  0  0
    0.2213    3.5105   -2.0819 H   0  0  0  0  0  0  0  0  0  0  0  0
    0.4998   -0.7433   -0.1116 C   0  0  0  0  0  0  0  0  0  0  0  0
    0.1567   -1.7833   -0.0785 H   0  0  0  0  0  0  0  0  0  0  0  0
    1.8857   -0.5422   -0.0719 C   0  0  1  0  0  3  0  0  0  0  0  0
    2.5292    0.7964    0.0927 C   0  0  0  0  0  0  0  0  0  0  0  0
    3.2444    1.3842   -0.9685 C   0  0  0  0  0  0  0  0  0  0  0  0
    3.2945    0.8684   -1.9395 H   0  0  0  0  0  0  0  0  0  0  0  0
    3.8606    2.6325   -0.7996 C   0  0  0  0  0  0  0  0  0  0  0  0
    4.4048    3.0912   -1.6391 H   0  0  0  0  0  0  0  0  0  0  0  0
    3.7792    3.2981    0.4340 C   0  0  0  0  0  0  0  0  0  0  0  0
    4.2642    4.2770    0.5661 H   0  0  0  0  0  0  0  0  0  0  0  0
    3.0750    2.7109    1.4987 C   0  0  0  0  0  0  0  0  0  0  0  0
    3.0072    3.2285    2.4676 H   0  0  0  0  0  0  0  0  0  0  0  0
    2.4517    1.4669    1.3301 C   0  0  0  0  0  0  0  0  0  0  0  0
    1.8843    1.0085    2.1540 H   0  0  0  0  0  0  0  0  0  0  0  0
    2.7402   -1.5961   -0.1390 N   0  0  0  0  0  0  0  0  0  0  0  0
    4.1918   -1.5278    0.1071 C   0  0  0  0  0  0  0  0  0  0  0  0
    4.4155   -0.8404    0.9460 H   0  0  0  0  0  0  0  0  0  0  0  0
    4.7210   -1.1331   -0.7889 H   0  0  0  0  0  0  0  0  0  0  0  0
    4.5755   -2.9859    0.3802 C   0  0  0  0  0  0  0  0  0  0  0  0
    5.6401   -3.1911    0.1574 H   0  0  0  0  0  0  0  0  0  0  0  0
    4.4003   -3.2308    1.4489 H   0  0  0  0  0  0  0  0  0  0  0  0
    3.5978   -3.7672   -0.5085 C   0  0  0  0  0  0  0  0  0  0  0  0
    3.4858   -4.8294   -0.2192 H   0  0  0  0  0  0  0  0  0  0  0  0
    3.9350   -3.7406   -1.5659 H   0  0  0  0  0  0  0  0  0  0  0  0
    2.2930   -2.9789   -0.3524 C   0  0  0  0  0  0  0  0  0  0  0  0
    1.6234   -3.0380   -1.2355 H   0  0  0  0  0  0  0  0  0  0  0  0
    1.7044   -3.3279    0.5274 H   0  0  0  0  0  0  0  0  0  0  0  0
  1 10  2  0  0  0  0
  2  3  1  0  0  0  0
  2  1  1  0  0  0  0
  3  4  1  0  0  0  0
  5  3  1  0  0  0  0
  6  8  1  0  0  0  0
  6  7  1  0  0  0  0
  6  3  1  0  0  0  0
  9  6  1  0  0  0  0
 10 11  1  0  0  0  0
 12 10  1  1  0  0  0
 12 13  1  0  0  0  0
 13 22  1  0  0  0  0
 14 16  1  0  0  0  0
 14 13  2  0  0  0  0
 15 14  1  0  0  0  0
 16 18  2  0  0  0  0
 17 16  1  0  0  0  0
 18 19  1  0  0  0  0
 18 20  1  0  0  0  0
 20 21  1  0  0  0  0
 22 20  2  0  0  0  0
 22 23  1  0  0  0  0
 24 12  1  0  0  0  0
 24 25  1  0  0  0  0
 25 28  1  0  0  0  0
 25 26  1  0  0  0  0
 27 25  1  0  0  0  0
 28 30  1  0  0  0  0
 29 28  1  0  0  0  0
 31 34  1  0  0  0  0
 31 32  1  0  0  0  0
 31 28  1  0  0  0  0
 33 31  1  0  0  0  0
 34 24  1  0  0  0  0
 34 36  1  0  0  0  0
 35 34  1  0  0  0  0
M  END
