9
 OpenBabel05122313113D

 26 26  0  0  0  0  0  0  0  0999 V2000
    1.1853    4.2359   -0.4104 C   0  0  0  0  0  0  0  0  0  0  0  0
    2.0943    4.8640   -0.4886 H   0  0  0  0  0  0  0  0  0  0  0  0
    0.5262    4.6904    0.3573 H   0  0  0  0  0  0  0  0  0  0  0  0
    0.6651    4.2645   -1.3890 H   0  0  0  0  0  0  0  0  0  0  0  0
    1.5712    2.8173   -0.0393 C   0  0  0  0  0  0  0  0  0  0  0  0
    2.2381    2.3636   -0.7962 H   0  0  0  0  0  0  0  0  0  0  0  0
    2.0888    2.7803    0.9402 H   0  0  0  0  0  0  0  0  0  0  0  0
    0.3613    2.0426    0.0551 O   0  0  0  0  0  0  0  0  0  0  0  0
    0.3381    0.6901    0.1173 C   0  0  0  0  0  2  0  0  0  0  0  0
   -1.0053    0.2127    0.1965 C   0  0  0  0  0  0  0  0  0  0  0  0
   -1.1216   -0.8662    0.3423 H   0  0  0  0  0  0  0  0  0  0  0  0
   -2.2092    0.9209    0.0604 C   0  0  0  0  0  0  0  0  0  0  0  0
   -2.2834    2.2692   -0.0262 N   0  0  0  0  0  0  0  0  0  0  0  0
   -3.1444    2.7110   -0.3446 H   0  0  0  0  0  0  0  0  0  0  0  0
   -1.4002    2.7865   -0.0205 H   0  0  0  0  0  0  0  0  0  0  0  0
   -3.4982    0.1842    0.0170 C   0  0  0  0  0  0  0  0  0  0  0  0
   -3.5831   -1.0864   -0.5968 C   0  0  0  0  0  0  0  0  0  0  0  0
   -2.6882   -1.5249   -1.0626 H   0  0  0  0  0  0  0  0  0  0  0  0
   -4.8039   -1.7710   -0.6422 C   0  0  0  0  0  0  0  0  0  0  0  0
   -4.8561   -2.7553   -1.1310 H   0  0  0  0  0  0  0  0  0  0  0  0
   -5.9575   -1.2029   -0.0770 C   0  0  0  0  0  0  0  0  0  0  0  0
   -6.9147   -1.7445   -0.1132 H   0  0  0  0  0  0  0  0  0  0  0  0
   -5.8843    0.0577    0.5365 C   0  0  0  0  0  0  0  0  0  0  0  0
   -6.7807    0.5025    0.9943 H   0  0  0  0  0  0  0  0  0  0  0  0
   -4.6657    0.7475    0.5817 C   0  0  0  0  0  0  0  0  0  0  0  0
   -4.6074    1.7185    1.0973 H   0  0  0  0  0  0  0  0  0  0  0  0
  1  5  1  0  0  0  0
  1  3  1  0  0  0  0
  2  1  1  0  0  0  0
  4  1  1  0  0  0  0
  5  8  1  0  0  0  0
  5  7  1  0  0  0  0
  6  5  1  0  0  0  0
  8  9  1  0  0  0  0
  9 10  1  0  0  0  0
 10 11  1  0  0  0  0
 12 10  2  0  0  0  0
 13 15  1  0  0  0  0
 13 12  1  0  0  0  0
 14 13  1  0  0  0  0
 16 12  1  0  0  0  0
 16 25  1  0  0  0  0
 17 16  2  0  0  0  0
 18 17  1  0  0  0  0
 19 17  1  0  0  0  0
 19 21  2  0  0  0  0
 20 19  1  0  0  0  0
 21 23  1  0  0  0  0
 22 21  1  0  0  0  0
 23 25  2  0  0  0  0
 23 24  1  0  0  0  0
 25 26  1  0  0  0  0
M  END
