3
 OpenBabel05122313113D

 11 11  0  0  0  0  0  0  0  0999 V2000
    1.3597    0.5637   -2.6787 F   0  0  0  0  0  0  0  0  0  0  0  0
    2.5855    0.7963    1.9243 F   0  0  0  0  0  0  0  0  0  0  0  0
    1.8314    0.6621   -0.3377 C   0  0  0  0  0  3  0  0  0  0  0  0
    2.2392    0.8630   -1.6709 C   0  0  0  0  0  0  0  0  0  0  0  0
    3.4891    1.3523   -2.0714 C   0  0  0  0  0  0  0  0  0  0  0  0
    3.7038    1.4711   -3.1432 H   0  0  0  0  0  0  0  0  0  0  0  0
    4.4314    1.6795   -1.0829 C   0  0  0  0  0  0  0  0  0  0  0  0
    5.4198    2.0701   -1.3666 H   0  0  0  0  0  0  0  0  0  0  0  0
    4.1040    1.4966    0.2687 C   0  0  0  0  0  0  0  0  0  0  0  0
    4.8133    1.7259    1.0770 H   0  0  0  0  0  0  0  0  0  0  0  0
    2.8344    0.9949    0.5870 C   0  0  0  0  0  0  0  0  0  0  0  0
  1  4  1  0  0  0  0
  3 11  1  0  0  0  0
  4  3  2  0  0  0  0
  5  4  1  0  0  0  0
  5  7  2  0  0  0  0
  6  5  1  0  0  0  0
  7  9  1  0  0  0  0
  8  7  1  0  0  0  0
  9 11  2  0  0  0  0
  9 10  1  0  0  0  0
 11  2  1  0  0  0  0
M  END
