2
 OpenBabel05122313113D

 18 17  0  0  0  0  0  0  0  0999 V2000
    1.0099   -2.1422    0.5554 C   0  0  0  0  0  3  0  0  0  0  0  0
    1.3334   -1.4474    1.7893 C   0  0  0  0  0  3  0  0  0  0  0  0
    2.5117   -0.6536    1.8453 C   0  0  0  0  0  3  0  0  0  0  0  0
    3.3697   -0.5516    0.7027 C   0  0  0  0  0  3  0  0  0  0  0  0
    4.3925    0.4862    0.6133 C   0  0  0  0  0  0  0  0  0  0  0  0
    5.4147    0.4696   -0.2758 C   0  0  0  0  0  0  0  0  0  0  0  0
    6.4669    1.5240   -0.4021 C   0  0  0  0  0  0  0  0  0  0  0  0
    1.9050   -2.9785   -0.1867 C   0  0  0  0  0  0  0  0  0  0  0  0
    2.5875   -3.6719   -0.8501 N   0  0  0  0  0  0  0  0  0  0  0  0
   -0.0219   -2.5376    0.5160 H   0  0  0  0  0  0  0  0  0  0  0  0
    0.6239   -1.4537    2.6302 H   0  0  0  0  0  0  0  0  0  0  0  0
    2.6785   -0.0122    2.7269 H   0  0  0  0  0  0  0  0  0  0  0  0
    3.5498   -1.4477    0.0882 H   0  0  0  0  0  0  0  0  0  0  0  0
    4.2995    1.3424    1.3078 H   0  0  0  0  0  0  0  0  0  0  0  0
    5.4785   -0.3849   -0.9749 H   0  0  0  0  0  0  0  0  0  0  0  0
    6.3275    2.3386    0.3363 H   0  0  0  0  0  0  0  0  0  0  0  0
    6.4626    1.9762   -1.4183 H   0  0  0  0  0  0  0  0  0  0  0  0
    7.4856    1.1004   -0.2619 H   0  0  0  0  0  0  0  0  0  0  0  0
  1  2  1  0  0  0  0
  2  3  1  0  0  0  0
  2 11  1  0  0  0  0
  3 12  1  0  0  0  0
  4  3  1  0  0  0  0
  5  4  1  0  0  0  0
  5 14  1  0  0  0  0
  6  5  2  0  0  0  0
  7  6  1  0  0  0  0
  7 18  1  0  0  0  0
  7 16  1  0  0  0  0
  8  1  1  0  0  0  0
  9  8  3  0  0  0  0
 10  1  1  0  0  0  0
 13  4  1  0  0  0  0
 15  6  1  0  0  0  0
 17  7  1  0  0  0  0
M  END
