3
 OpenBabel05122313113D

 10  9  0  0  0  0  0  0  0  0999 V2000
    1.2565    0.1854    2.0139 O   0  0  0  0  0  0  0  0  0  0  0  0
    2.2177   -1.8675    1.7680 O   0  0  0  0  0  0  0  0  0  0  0  0
   -0.0886   -0.3678    2.0130 C   0  0  0  0  0  3  0  0  0  0  0  0
    2.3041   -0.6566    1.9006 C   0  0  0  0  0  0  0  0  0  0  0  0
    3.6149    0.0996    1.9868 C   0  0  0  0  0  0  0  0  0  0  0  0
   -0.6147    0.1867    2.8131 H   0  0  0  0  0  0  0  0  0  0  0  0
   -0.0164   -1.4373    2.2930 H   0  0  0  0  0  0  0  0  0  0  0  0
    3.4947    1.1673    1.7258 H   0  0  0  0  0  0  0  0  0  0  0  0
    4.3603   -0.3863    1.3297 H   0  0  0  0  0  0  0  0  0  0  0  0
    3.9975    0.0380    3.0264 H   0  0  0  0  0  0  0  0  0  0  0  0
  2  4  2  0  0  0  0
  3  1  1  0  0  0  0
  3  7  1  0  0  0  0
  3  6  1  0  0  0  0
  4  5  1  0  0  0  0
  4  1  1  0  0  0  0
  5 10  1  0  0  0  0
  8  5  1  0  0  0  0
  9  5  1  0  0  0  0
M  END
