3
 OpenBabel05122313113D

 11 10  0  0  0  0  0  0  0  0999 V2000
    0.0657    3.4060   -1.3221 O   0  0  0  0  0  0  0  0  0  0  0  0
   -2.1566    2.9285   -1.0837 O   0  0  0  0  0  0  0  0  0  0  0  0
   -0.6382    1.1543   -1.0709 C   0  0  0  0  0  1  0  0  0  0  0  0
   -0.8367    2.5852   -1.1722 C   0  0  0  0  0  0  0  0  0  0  0  0
   -2.4563    4.3445   -1.1152 C   0  0  0  0  0  0  0  0  0  0  0  0
   -3.4899    4.4014   -1.5079 H   0  0  0  0  0  0  0  0  0  0  0  0
   -1.7656    4.8371   -1.8283 H   0  0  0  0  0  0  0  0  0  0  0  0
   -2.3423    4.9604    0.2697 C   0  0  0  0  0  0  0  0  0  0  0  0
   -2.6319    6.0300    0.2346 H   0  0  0  0  0  0  0  0  0  0  0  0
   -1.3000    4.9001    0.6391 H   0  0  0  0  0  0  0  0  0  0  0  0
   -3.0080    4.4475    0.9931 H   0  0  0  0  0  0  0  0  0  0  0  0
  1  4  2  0  0  0  0
  4  2  1  0  0  0  0
  4  3  1  0  0  0  0
  5  2  1  0  0  0  0
  5  8  1  0  0  0  0
  6  5  1  0  0  0  0
  7  5  1  0  0  0  0
  8 10  1  0  0  0  0
  8 11  1  0  0  0  0
  9  8  1  0  0  0  0
M  END
