5
 OpenBabel05122313113D

 19 19  0  0  0  0  0  0  0  0999 V2000
   -1.9458   -0.9975    1.2704 C   0  0  0  0  0  0  0  0  0  0  0  0
   -1.9897    0.3805    1.5559 C   0  0  0  0  0  0  0  0  0  0  0  0
   -2.8491    1.4188    0.8620 C   0  0  0  0  0  0  0  0  0  0  0  0
   -1.9753    1.7616   -0.3330 C   0  0  0  0  0  3  0  0  0  0  0  0
   -1.7680    0.9533   -1.4740 C   0  0  0  0  0  3  0  0  0  0  0  0
   -2.0161   -0.4614   -1.4955 C   0  0  0  0  0  3  0  0  0  0  0  0
   -3.2502   -1.1276   -0.8912 C   0  0  0  0  0  0  0  0  0  0  0  0
   -2.9100   -1.8089    0.4349 C   0  0  0  0  0  0  0  0  0  0  0  0
   -1.3643   -1.5924    1.9916 H   0  0  0  0  0  0  0  0  0  0  0  0
   -1.4069    0.7324    2.4220 H   0  0  0  0  0  0  0  0  0  0  0  0
   -3.8616    1.0633    0.5933 H   0  0  0  0  0  0  0  0  0  0  0  0
   -2.9740    2.3073    1.5072 H   0  0  0  0  0  0  0  0  0  0  0  0
   -1.5496    2.7779   -0.3641 H   0  0  0  0  0  0  0  0  0  0  0  0
   -1.1908    1.3952   -2.3012 H   0  0  0  0  0  0  0  0  0  0  0  0
   -1.5824   -0.9833   -2.3623 H   0  0  0  0  0  0  0  0  0  0  0  0
   -4.0599   -0.3832   -0.7651 H   0  0  0  0  0  0  0  0  0  0  0  0
   -3.6421   -1.8755   -1.6094 H   0  0  0  0  0  0  0  0  0  0  0  0
   -3.8244   -2.0393    1.0286 H   0  0  0  0  0  0  0  0  0  0  0  0
   -2.4193   -2.7815    0.2308 H   0  0  0  0  0  0  0  0  0  0  0  0
  1  2  2  0  0  0  0
  1  9  1  0  0  0  0
  2 10  1  0  0  0  0
  3 12  1  0  0  0  0
  3  2  1  0  0  0  0
  4  3  1  0  0  0  0
  5  4  1  0  0  0  0
  6  5  1  0  0  0  0
  6  7  1  0  0  0  0
  7 16  1  0  0  0  0
  7  8  1  0  0  0  0
  8 18  1  0  0  0  0
  8  1  1  0  0  0  0
 11  3  1  0  0  0  0
 13  4  1  0  0  0  0
 14  5  1  0  0  0  0
 15  6  1  0  0  0  0
 17  7  1  0  0  0  0
 19  8  1  0  0  0  0
M  END
