10
 OpenBabel05122313113D

 46 48  0  0  1  0  0  0  0  0999 V2000
   -0.0912   -1.4568   -1.4717 O   0  0  0  0  0  0  0  0  0  0  0  0
   -0.1164    2.5903    0.0265 O   0  0  0  0  0  0  0  0  0  0  0  0
    0.7266    0.4045   -0.5520 C   0  0  0  0  0  0  0  0  0  0  0  0
    0.8916    1.7429   -0.1623 C   0  0  0  0  0  0  0  0  0  0  0  0
    2.3011    2.0634   -0.0344 C   0  0  0  0  0  0  0  0  0  0  0  0
    2.6971    3.0534    0.2219 H   0  0  0  0  0  0  0  0  0  0  0  0
    3.0576    0.9521   -0.3253 C   0  0  0  0  0  0  0  0  0  0  0  0
    2.1250   -0.1929   -0.6822 C   0  0  1  0  0  0  0  0  0  0  0  0
    2.2940   -0.5021   -1.7367 H   0  0  0  0  0  0  0  0  0  0  0  0
   -0.4668   -0.3590   -0.7885 C   0  0  0  0  0  2  0  0  0  0  0  0
   -1.0037   -2.4975   -1.8527 C   0  0  0  0  0  0  0  0  0  0  0  0
   -1.6795   -2.0998   -2.6381 H   0  0  0  0  0  0  0  0  0  0  0  0
   -1.6272   -2.7751   -0.9804 H   0  0  0  0  0  0  0  0  0  0  0  0
   -0.1893   -3.6731   -2.3552 C   0  0  0  0  0  0  0  0  0  0  0  0
    0.4614   -4.0732   -1.5532 H   0  0  0  0  0  0  0  0  0  0  0  0
    0.4495   -3.3792   -3.2121 H   0  0  0  0  0  0  0  0  0  0  0  0
   -0.8687   -4.4808   -2.6919 H   0  0  0  0  0  0  0  0  0  0  0  0
    0.1215    3.9628    0.3859 C   0  0  0  0  0  0  0  0  0  0  0  0
   -0.8140    4.2737    0.8905 H   0  0  0  0  0  0  0  0  0  0  0  0
    0.9385    4.0182    1.1364 H   0  0  0  0  0  0  0  0  0  0  0  0
    0.3903    4.8208   -0.8387 C   0  0  0  0  0  0  0  0  0  0  0  0
   -0.4482    4.7290   -1.5564 H   0  0  0  0  0  0  0  0  0  0  0  0
    1.3256    4.5219   -1.3531 H   0  0  0  0  0  0  0  0  0  0  0  0
    0.4842    5.8850   -0.5435 H   0  0  0  0  0  0  0  0  0  0  0  0
    2.3225   -1.4103    0.2167 C   0  0  0  0  0  0  0  0  0  0  0  0
    2.0695   -1.3024    1.5979 C   0  0  0  0  0  0  0  0  0  0  0  0
    1.7272   -0.3407    2.0115 H   0  0  0  0  0  0  0  0  0  0  0  0
    2.2245   -2.4127    2.4388 C   0  0  0  0  0  0  0  0  0  0  0  0
    2.0157   -2.3152    3.5150 H   0  0  0  0  0  0  0  0  0  0  0  0
    2.6370   -3.6474    1.9103 C   0  0  0  0  0  0  0  0  0  0  0  0
    2.7553   -4.5200    2.5703 H   0  0  0  0  0  0  0  0  0  0  0  0
    2.8903   -3.7631    0.5354 C   0  0  0  0  0  0  0  0  0  0  0  0
    3.2070   -4.7281    0.1106 H   0  0  0  0  0  0  0  0  0  0  0  0
    2.7312   -2.6496   -0.3049 C   0  0  0  0  0  0  0  0  0  0  0  0
    2.9088   -2.7491   -1.3875 H   0  0  0  0  0  0  0  0  0  0  0  0
    4.5146    0.8479   -0.2861 C   0  0  0  0  0  0  0  0  0  0  0  0
    5.1914   -0.1982   -0.9605 C   0  0  0  0  0  0  0  0  0  0  0  0
    4.6144   -0.9436   -1.5239 H   0  0  0  0  0  0  0  0  0  0  0  0
    6.5879   -0.2883   -0.9307 C   0  0  0  0  0  0  0  0  0  0  0  0
    7.0916   -1.1082   -1.4647 H   0  0  0  0  0  0  0  0  0  0  0  0
    7.3439    0.6615   -0.2256 C   0  0  0  0  0  0  0  0  0  0  0  0
    8.4415    0.5881   -0.2002 H   0  0  0  0  0  0  0  0  0  0  0  0
    6.6892    1.7040    0.4533 C   0  0  0  0  0  0  0  0  0  0  0  0
    7.2732    2.4462    1.0182 H   0  0  0  0  0  0  0  0  0  0  0  0
    5.2944    1.7949    0.4254 C   0  0  0  0  0  0  0  0  0  0  0  0
    4.7930    2.5977    0.9860 H   0  0  0  0  0  0  0  0  0  0  0  0
  1 10  1  0  0  0  0
  2 18  1  0  0  0  0
  3  4  2  0  0  0  0
  4  5  1  0  0  0  0
  4  2  1  0  0  0  0
  5  6  1  0  0  0  0
  7 36  1  0  0  0  0
  7  5  2  0  0  0  0
  8  9  1  6  0  0  0
  8  3  1  0  0  0  0
  8  7  1  0  0  0  0
  8 25  1  0  0  0  0
 10  3  1  0  0  0  0
 11  1  1  0  0  0  0
 11 13  1  0  0  0  0
 12 11  1  0  0  0  0
 14 11  1  0  0  0  0
 14 15  1  0  0  0  0
 16 14  1  0  0  0  0
 17 14  1  0  0  0  0
 18 19  1  0  0  0  0
 18 20  1  0  0  0  0
 21 24  1  0  0  0  0
 21 18  1  0  0  0  0
 22 21  1  0  0  0  0
 23 21  1  0  0  0  0
 25 26  1  0  0  0  0
 26 27  1  0  0  0  0
 26 28  2  0  0  0  0
 28 29  1  0  0  0  0
 30 28  1  0  0  0  0
 30 31  1  0  0  0  0
 32 30  2  0  0  0  0
 33 32  1  0  0  0  0
 34 25  2  0  0  0  0
 34 32  1  0  0  0  0
 35 34  1  0  0  0  0
 36 45  1  0  0  0  0
 37 39  1  0  0  0  0
 37 36  2  0  0  0  0
 38 37  1  0  0  0  0
 39 41  2  0  0  0  0
 40 39  1  0  0  0  0
 41 42  1  0  0  0  0
 41 43  1  0  0  0  0
 43 44  1  0  0  0  0
 45 43  2  0  0  0  0
 45 46  1  0  0  0  0
M  END
