3
 OpenBabel05122313113D

 27 27  0  0  0  0  0  0  0  0999 V2000
   -4.1184   -0.4516    0.5215 S   0  0  0  0  0  0  0  0  0  0  0  0
   -1.3449    0.6637   -0.2394 C   0  0  0  0  0  3  0  0  0  0  0  0
   -1.1428   -0.5907   -0.2299 C   0  0  0  0  0  3  0  0  0  0  0  0
   -1.7260   -1.9573   -0.1318 C   0  0  0  0  0  0  0  0  0  0  0  0
   -1.1231   -2.9179   -1.1720 C   0  0  0  0  0  0  0  0  0  0  0  0
   -1.5028   -2.4949    1.2948 C   0  0  0  0  0  0  0  0  0  0  0  0
   -3.2424   -1.7609   -0.4260 C   0  0  0  0  0  0  0  0  0  0  0  0
   -3.7263    1.0582   -0.4484 C   0  0  0  0  0  0  0  0  0  0  0  0
   -2.3633    1.7493   -0.1512 C   0  0  0  0  0  0  0  0  0  0  0  0
   -2.3490    2.3359    1.2738 C   0  0  0  0  0  0  0  0  0  0  0  0
   -2.1126    2.8566   -1.1910 C   0  0  0  0  0  0  0  0  0  0  0  0
   -1.6045   -3.9144   -1.0990 H   0  0  0  0  0  0  0  0  0  0  0  0
   -0.0352   -3.0329   -0.9955 H   0  0  0  0  0  0  0  0  0  0  0  0
   -1.2655   -2.5331   -2.2019 H   0  0  0  0  0  0  0  0  0  0  0  0
   -1.9233   -3.5176    1.3858 H   0  0  0  0  0  0  0  0  0  0  0  0
   -2.0001   -1.8380    2.0358 H   0  0  0  0  0  0  0  0  0  0  0  0
   -0.4193   -2.5352    1.5217 H   0  0  0  0  0  0  0  0  0  0  0  0
   -3.3933   -1.5525   -1.5062 H   0  0  0  0  0  0  0  0  0  0  0  0
   -3.7872   -2.6989   -0.1884 H   0  0  0  0  0  0  0  0  0  0  0  0
   -4.5560    1.7643   -0.2321 H   0  0  0  0  0  0  0  0  0  0  0  0
   -3.7857    0.7945   -1.5254 H   0  0  0  0  0  0  0  0  0  0  0  0
   -3.0993    3.1486    1.3640 H   0  0  0  0  0  0  0  0  0  0  0  0
   -1.3511    2.7559    1.5103 H   0  0  0  0  0  0  0  0  0  0  0  0
   -2.5866    1.5476    2.0151 H   0  0  0  0  0  0  0  0  0  0  0  0
   -2.9081    3.6279   -1.1385 H   0  0  0  0  0  0  0  0  0  0  0  0
   -2.0940    2.4427   -2.2191 H   0  0  0  0  0  0  0  0  0  0  0  0
   -1.1383    3.3494   -1.0001 H   0  0  0  0  0  0  0  0  0  0  0  0
  2  3  2  0  0  0  0
  2  9  1  0  0  0  0
  3  4  1  0  0  0  0
  4  6  1  0  0  0  0
  5 12  1  0  0  0  0
  5 13  1  0  0  0  0
  5  4  1  0  0  0  0
  6 15  1  0  0  0  0
  6 17  1  0  0  0  0
  6 16  1  0  0  0  0
  7 19  1  0  0  0  0
  7  4  1  0  0  0  0
  7  1  1  0  0  0  0
  8 20  1  0  0  0  0
  8  9  1  0  0  0  0
  8  1  1  0  0  0  0
  9 10  1  0  0  0  0
 10 22  1  0  0  0  0
 10 23  1  0  0  0  0
 10 24  1  0  0  0  0
 11 25  1  0  0  0  0
 11 27  1  0  0  0  0
 11  9  1  0  0  0  0
 14  5  1  0  0  0  0
 18  7  1  0  0  0  0
 21  8  1  0  0  0  0
 26 11  1  0  0  0  0
M  END
