1
 OpenBabel05122313113D

 67 71  0  0  0  0  0  0  0  0999 V2000
   -1.6256    0.3754   -0.8538 C   0  0  0  0  0  2  0  0  0  0  0  0
   -2.2292    1.5449   -1.1538 N   0  0  0  0  0  0  0  0  0  0  0  0
   -3.6864    1.6883   -0.8999 C   0  0  0  0  0  0  0  0  0  0  0  0
   -3.9913    0.6851   -0.5316 H   0  0  0  0  0  0  0  0  0  0  0  0
   -3.9555    2.6968    0.2197 C   0  0  0  0  0  0  0  0  0  0  0  0
   -3.3917    2.4210    1.1331 H   0  0  0  0  0  0  0  0  0  0  0  0
   -5.0353    2.7006    0.4676 H   0  0  0  0  0  0  0  0  0  0  0  0
   -3.6792    3.7337   -0.0655 H   0  0  0  0  0  0  0  0  0  0  0  0
   -4.4668    1.9716   -2.1845 C   0  0  0  0  0  0  0  0  0  0  0  0
   -4.2329    2.9652   -2.6214 H   0  0  0  0  0  0  0  0  0  0  0  0
   -5.5531    1.9588   -1.9676 H   0  0  0  0  0  0  0  0  0  0  0  0
   -4.2621    1.1942   -2.9469 H   0  0  0  0  0  0  0  0  0  0  0  0
   -1.5479    2.7533   -1.6947 C   0  0  0  0  0  0  0  0  0  0  0  0
   -2.3723    3.4794   -1.8290 H   0  0  0  0  0  0  0  0  0  0  0  0
   -0.5701    3.4203   -0.7107 C   0  0  0  0  0  0  0  0  0  0  0  0
   -0.9886    3.4495    0.3131 H   0  0  0  0  0  0  0  0  0  0  0  0
   -0.3810    4.4616   -1.0390 H   0  0  0  0  0  0  0  0  0  0  0  0
    0.4267    2.9369   -0.6450 H   0  0  0  0  0  0  0  0  0  0  0  0
   -0.9544    2.5176   -3.0911 C   0  0  0  0  0  0  0  0  0  0  0  0
   -0.1085    1.8034   -3.0864 H   0  0  0  0  0  0  0  0  0  0  0  0
   -0.5817    3.4767   -3.5023 H   0  0  0  0  0  0  0  0  0  0  0  0
   -1.7249    2.1209   -3.7800 H   0  0  0  0  0  0  0  0  0  0  0  0
   -0.2735    0.3281   -0.9940 N   0  0  0  0  0  0  0  0  0  0  0  0
    0.2383    1.2159   -1.0341 H   0  0  0  0  0  0  0  0  0  0  0  0
    1.6362   -0.5606    0.1955 C   0  0  0  0  0  0  0  0  0  0  0  0
    0.5470   -0.7810   -0.6567 C   0  0  0  0  0  0  0  0  0  0  0  0
    0.2967   -2.0607   -1.2236 C   0  0  0  0  0  0  0  0  0  0  0  0
   -0.5521   -2.1829   -1.9102 H   0  0  0  0  0  0  0  0  0  0  0  0
    1.1310   -3.1210   -0.9211 C   0  0  0  0  0  0  0  0  0  0  0  0
    0.9404   -4.1123   -1.3591 H   0  0  0  0  0  0  0  0  0  0  0  0
    2.2481   -2.9539   -0.0521 C   0  0  0  0  0  0  0  0  0  0  0  0
    3.1155   -4.0379    0.2700 C   0  0  0  0  0  0  0  0  0  0  0  0
    2.9092   -5.0247   -0.1727 H   0  0  0  0  0  0  0  0  0  0  0  0
    4.1915   -3.8601    1.1263 C   0  0  0  0  0  0  0  0  0  0  0  0
    4.8522   -4.7064    1.3672 H   0  0  0  0  0  0  0  0  0  0  0  0
    4.4361   -2.5858    1.7028 C   0  0  0  0  0  0  0  0  0  0  0  0
    5.2839   -2.4523    2.3917 H   0  0  0  0  0  0  0  0  0  0  0  0
    3.6128   -1.5091    1.4080 C   0  0  0  0  0  0  0  0  0  0  0  0
    3.8025   -0.5274    1.8644 H   0  0  0  0  0  0  0  0  0  0  0  0
    2.5076   -1.6542    0.5188 C   0  0  0  0  0  0  0  0  0  0  0  0
    1.8452    0.8003    0.7754 C   0  0  0  0  0  0  0  0  0  0  0  0
    2.9317    1.6043    0.3820 C   0  0  0  0  0  0  0  0  0  0  0  0
    3.0969    2.8956    0.9742 C   0  0  0  0  0  0  0  0  0  0  0  0
    3.9489    3.5127    0.6521 H   0  0  0  0  0  0  0  0  0  0  0  0
    2.1929    3.3888    1.8965 C   0  0  0  0  0  0  0  0  0  0  0  0
    2.3234    4.3974    2.3186 H   0  0  0  0  0  0  0  0  0  0  0  0
    1.0690    2.6130    2.3014 C   0  0  0  0  0  0  0  0  0  0  0  0
    0.0977    3.1161    3.2159 C   0  0  0  0  0  0  0  0  0  0  0  0
    0.2345    4.1300    3.6234 H   0  0  0  0  0  0  0  0  0  0  0  0
   -0.9986    2.3490    3.5830 C   0  0  0  0  0  0  0  0  0  0  0  0
   -1.7457    2.7516    4.2837 H   0  0  0  0  0  0  0  0  0  0  0  0
   -1.1502    1.0351    3.0650 C   0  0  0  0  0  0  0  0  0  0  0  0
   -2.0137    0.4196    3.3591 H   0  0  0  0  0  0  0  0  0  0  0  0
   -0.2148    0.5139    2.1829 C   0  0  0  0  0  0  0  0  0  0  0  0
   -0.3489   -0.5055    1.7930 H   0  0  0  0  0  0  0  0  0  0  0  0
    0.9037    1.2891    1.7528 C   0  0  0  0  0  0  0  0  0  0  0  0
    3.9346    1.1511   -0.6208 C   0  0  0  0  0  0  0  0  0  0  0  0
    3.5537    0.6223   -1.8735 C   0  0  0  0  0  0  0  0  0  0  0  0
    2.4882    0.5470   -2.1325 H   0  0  0  0  0  0  0  0  0  0  0  0
    4.5183    0.1989   -2.7972 C   0  0  0  0  0  0  0  0  0  0  0  0
    4.1989   -0.2088   -3.7682 H   0  0  0  0  0  0  0  0  0  0  0  0
    5.8844    0.2944   -2.4879 C   0  0  0  0  0  0  0  0  0  0  0  0
    6.6409   -0.0450   -3.2114 H   0  0  0  0  0  0  0  0  0  0  0  0
    6.2784    0.8269   -1.2507 C   0  0  0  0  0  0  0  0  0  0  0  0
    7.3466    0.9030   -0.9969 H   0  0  0  0  0  0  0  0  0  0  0  0
    5.3128    1.2549   -0.3290 C   0  0  0  0  0  0  0  0  0  0  0  0
    5.6267    1.6536    0.6480 H   0  0  0  0  0  0  0  0  0  0  0  0
  2  3  1  0  0  0  0
  2  1  1  0  0  0  0
  3  4  1  0  0  0  0
  3  5  1  0  0  0  0
  5  7  1  0  0  0  0
  5  6  1  0  0  0  0
  8  5  1  0  0  0  0
  9 11  1  0  0  0  0
  9  3  1  0  0  0  0
 10  9  1  0  0  0  0
 12  9  1  0  0  0  0
 13  2  1  0  0  0  0
 13 15  1  0  0  0  0
 14 13  1  0  0  0  0
 15 18  1  0  0  0  0
 15 16  1  0  0  0  0
 17 15  1  0  0  0  0
 19 20  1  0  0  0  0
 19 13  1  0  0  0  0
 21 19  1  0  0  0  0
 22 19  1  0  0  0  0
 23  1  1  0  0  0  0
 23 26  1  0  0  0  0
 24 23  1  0  0  0  0
 25 40  1  0  0  0  0
 25 41  1  0  0  0  0
 26 25  2  0  0  0  0
 27 29  2  0  0  0  0
 27 26  1  0  0  0  0
 28 27  1  0  0  0  0
 29 31  1  0  0  0  0
 30 29  1  0  0  0  0
 31 32  2  0  0  0  0
 31 40  1  0  0  0  0
 32 34  1  0  0  0  0
 33 32  1  0  0  0  0
 34 35  1  0  0  0  0
 34 36  2  0  0  0  0
 36 37  1  0  0  0  0
 38 36  1  0  0  0  0
 38 39  1  0  0  0  0
 40 38  2  0  0  0  0
 41 56  1  0  0  0  0
 42 41  2  0  0  0  0
 42 43  1  0  0  0  0
 43 45  2  0  0  0  0
 44 43  1  0  0  0  0
 45 47  1  0  0  0  0
 45 46  1  0  0  0  0
 47 48  1  0  0  0  0
 48 50  2  0  0  0  0
 48 49  1  0  0  0  0
 50 51  1  0  0  0  0
 52 53  1  0  0  0  0
 52 50  1  0  0  0  0
 54 52  2  0  0  0  0
 55 54  1  0  0  0  0
 56 54  1  0  0  0  0
 56 47  2  0  0  0  0
 57 66  1  0  0  0  0
 57 42  1  0  0  0  0
 58 57  2  0  0  0  0
 59 58  1  0  0  0  0
 60 62  2  0  0  0  0
 60 58  1  0  0  0  0
 61 60  1  0  0  0  0
 62 64  1  0  0  0  0
 63 62  1  0  0  0  0
 64 65  1  0  0  0  0
 64 66  2  0  0  0  0
 66 67  1  0  0  0  0
M  END
