5
 OpenBabel05122313113D

 37 39  0  0  0  0  0  0  0  0999 V2000
   -6.6555   -0.1134    0.1044 O   0  0  0  0  0  0  0  0  0  0  0  0
    5.7283   -2.2001    0.0128 O   0  0  0  0  0  0  0  0  0  0  0  0
   -1.8539   -2.9861    0.0448 N   0  0  0  0  0  0  0  0  0  0  0  0
    0.2714   -3.4155    0.1253 N   0  0  0  0  0  0  0  0  0  0  0  0
   -0.6277   -2.3875    0.0881 C   0  0  0  0  0  2  0  0  0  0  0  0
   -1.7230   -4.3754    0.0552 C   0  0  0  0  0  0  0  0  0  0  0  0
   -2.5921   -5.0371    0.0073 H   0  0  0  0  0  0  0  0  0  0  0  0
   -0.3807   -4.6464    0.1022 C   0  0  0  0  0  0  0  0  0  0  0  0
    0.1662   -5.5926    0.1319 H   0  0  0  0  0  0  0  0  0  0  0  0
   -3.0913   -2.2680    0.0137 C   0  0  0  0  0  0  0  0  0  0  0  0
   -4.0999   -2.5650    0.9481 C   0  0  0  0  0  0  0  0  0  0  0  0
   -3.9355   -3.3490    1.7015 H   0  0  0  0  0  0  0  0  0  0  0  0
   -5.2881   -1.8336    0.9428 C   0  0  0  0  0  0  0  0  0  0  0  0
   -6.0857   -2.0363    1.6713 H   0  0  0  0  0  0  0  0  0  0  0  0
   -5.4754   -0.7831    0.0165 C   0  0  0  0  0  0  0  0  0  0  0  0
   -4.4612   -0.4930   -0.9198 C   0  0  0  0  0  0  0  0  0  0  0  0
   -4.5784    0.3094   -1.6600 H   0  0  0  0  0  0  0  0  0  0  0  0
   -3.2754   -1.2404   -0.9214 C   0  0  0  0  0  0  0  0  0  0  0  0
   -2.4830   -1.0212   -1.6531 H   0  0  0  0  0  0  0  0  0  0  0  0
   -6.8761    0.9736   -0.7740 C   0  0  0  0  0  0  0  0  0  0  0  0
   -6.1110    1.7726   -0.6441 H   0  0  0  0  0  0  0  0  0  0  0  0
   -7.8708    1.3846   -0.5208 H   0  0  0  0  0  0  0  0  0  0  0  0
   -6.8778    0.6535   -1.8403 H   0  0  0  0  0  0  0  0  0  0  0  0
    1.6869   -3.1928    0.1603 C   0  0  0  0  0  0  0  0  0  0  0  0
    2.2462   -2.5056    1.2469 C   0  0  0  0  0  0  0  0  0  0  0  0
    1.6018   -2.2041    2.0861 H   0  0  0  0  0  0  0  0  0  0  0  0
    3.6073   -2.1696    1.2412 C   0  0  0  0  0  0  0  0  0  0  0  0
    4.0211   -1.6131    2.0919 H   0  0  0  0  0  0  0  0  0  0  0  0
    4.4112   -2.5220    0.1373 C   0  0  0  0  0  0  0  0  0  0  0  0
    3.8450   -3.2386   -0.9406 C   0  0  0  0  0  0  0  0  0  0  0  0
    4.4885   -3.4971   -1.7932 H   0  0  0  0  0  0  0  0  0  0  0  0
    2.4876   -3.5640   -0.9344 C   0  0  0  0  0  0  0  0  0  0  0  0
    2.0308   -4.0676   -1.7979 H   0  0  0  0  0  0  0  0  0  0  0  0
    6.3442   -1.4764    1.0655 C   0  0  0  0  0  0  0  0  0  0  0  0
    5.8696   -0.4806    1.2118 H   0  0  0  0  0  0  0  0  0  0  0  0
    7.3994   -1.3331    0.7683 H   0  0  0  0  0  0  0  0  0  0  0  0
    6.3116   -2.0382    2.0254 H   0  0  0  0  0  0  0  0  0  0  0  0
  2 29  1  0  0  0  0
  2 34  1  0  0  0  0
  3  6  1  0  0  0  0
  3  5  1  0  0  0  0
  4 24  1  0  0  0  0
  5  4  1  0  0  0  0
  6  8  2  0  0  0  0
  7  6  1  0  0  0  0
  8  4  1  0  0  0  0
  8  9  1  0  0  0  0
 10  3  1  0  0  0  0
 10 11  1  0  0  0  0
 11 12  1  0  0  0  0
 13 11  2  0  0  0  0
 13 14  1  0  0  0  0
 15  1  1  0  0  0  0
 15 13  1  0  0  0  0
 16 15  2  0  0  0  0
 17 16  1  0  0  0  0
 18 16  1  0  0  0  0
 18 10  2  0  0  0  0
 19 18  1  0  0  0  0
 20 21  1  0  0  0  0
 20 22  1  0  0  0  0
 20  1  1  0  0  0  0
 23 20  1  0  0  0  0
 24 25  1  0  0  0  0
 25 26  1  0  0  0  0
 27 25  2  0  0  0  0
 27 28  1  0  0  0  0
 29 27  1  0  0  0  0
 30 32  1  0  0  0  0
 30 29  2  0  0  0  0
 31 30  1  0  0  0  0
 32 24  2  0  0  0  0
 33 32  1  0  0  0  0
 34 35  1  0  0  0  0
 34 37  1  0  0  0  0
 36 34  1  0  0  0  0
M  END
