2
 OpenBabel05122313113D

 26 27  0  0  0  0  0  0  0  0999 V2000
   -2.8084   -0.6591   -1.6416 P   0  0  0  0  0  0  0  0  0  0  0  0
   -0.8153   -2.3896   -0.4341 C   0  0  0  0  0  3  0  0  0  0  0  0
   -1.1215   -3.4354   -0.3157 H   0  0  0  0  0  0  0  0  0  0  0  0
   -1.2730   -1.2149   -0.8894 C   0  0  0  0  0  3  0  0  0  0  0  0
   -3.9984   -1.4100   -0.4270 C   0  0  0  0  0  0  0  0  0  0  0  0
   -4.1563   -2.8135   -0.4691 C   0  0  0  0  0  0  0  0  0  0  0  0
   -3.6146   -3.4002   -1.2280 H   0  0  0  0  0  0  0  0  0  0  0  0
   -4.9930   -3.4663    0.4470 C   0  0  0  0  0  0  0  0  0  0  0  0
   -5.0973   -4.5614    0.4065 H   0  0  0  0  0  0  0  0  0  0  0  0
   -5.7038   -2.7249    1.4058 C   0  0  0  0  0  0  0  0  0  0  0  0
   -6.3626   -3.2362    2.1239 H   0  0  0  0  0  0  0  0  0  0  0  0
   -5.5777   -1.3275    1.4324 C   0  0  0  0  0  0  0  0  0  0  0  0
   -6.1404   -0.7366    2.1719 H   0  0  0  0  0  0  0  0  0  0  0  0
   -4.7322   -0.6713    0.5224 C   0  0  0  0  0  0  0  0  0  0  0  0
   -4.6350    0.4232    0.5619 H   0  0  0  0  0  0  0  0  0  0  0  0
   -2.9233    1.1424   -1.2659 C   0  0  0  0  0  0  0  0  0  0  0  0
   -3.4821    1.9777   -2.2545 C   0  0  0  0  0  0  0  0  0  0  0  0
   -3.8135    1.5390   -3.2093 H   0  0  0  0  0  0  0  0  0  0  0  0
   -3.6112    3.3579   -2.0315 C   0  0  0  0  0  0  0  0  0  0  0  0
   -4.0470    4.0014   -2.8111 H   0  0  0  0  0  0  0  0  0  0  0  0
   -3.1799    3.9147   -0.8177 C   0  0  0  0  0  0  0  0  0  0  0  0
   -3.2732    4.9977   -0.6437 H   0  0  0  0  0  0  0  0  0  0  0  0
   -2.6304    3.0864    0.1749 C   0  0  0  0  0  0  0  0  0  0  0  0
   -2.2972    3.5144    1.1325 H   0  0  0  0  0  0  0  0  0  0  0  0
   -2.5040    1.7084   -0.0450 C   0  0  0  0  0  0  0  0  0  0  0  0
   -2.0763    1.0639    0.7321 H   0  0  0  0  0  0  0  0  0  0  0  0
  1 16  1  0  0  0  0
  1  4  1  0  0  0  0
  1  5  1  0  0  0  0
  2  3  1  0  0  0  0
  4  2  2  0  0  0  0
  5 14  1  0  0  0  0
  6  5  2  0  0  0  0
  6  8  1  0  0  0  0
  7  6  1  0  0  0  0
  8 10  2  0  0  0  0
  9  8  1  0  0  0  0
 10 12  1  0  0  0  0
 10 11  1  0  0  0  0
 12 13  1  0  0  0  0
 14 15  1  0  0  0  0
 14 12  2  0  0  0  0
 16 25  1  0  0  0  0
 17 19  1  0  0  0  0
 17 16  2  0  0  0  0
 18 17  1  0  0  0  0
 19 21  2  0  0  0  0
 20 19  1  0  0  0  0
 21 22  1  0  0  0  0
 21 23  1  0  0  0  0
 23 24  1  0  0  0  0
 25 23  2  0  0  0  0
 25 26  1  0  0  0  0
M  END
