1
 OpenBabel05122313113D

 15 15  0  0  0  0  0  0  0  0999 V2000
   -0.6471   -0.0001    0.0000 C   0  0  0  0  0  1  0  0  0  0  0  0
    0.5565   -0.0001    0.0000 N   0  0  0  0  0  2  0  0  0  0  0  0
    1.8519   -0.0001   -0.0000 C   0  0  0  0  0  0  0  0  0  0  0  0
    3.0878   -0.0001   -0.0000 C   0  0  0  0  0  0  0  0  0  0  0  0
    4.5099   -0.0000   -0.0000 C   0  0  0  0  0  0  0  0  0  0  0  0
    5.2312   -1.2231   -0.0008 C   0  0  0  0  0  0  0  0  0  0  0  0
    6.6300   -1.2159   -0.0007 C   0  0  0  0  0  0  0  0  0  0  0  0
    7.3339    0.0001    0.0000 C   0  0  0  0  0  0  0  0  0  0  0  0
    6.6299    1.2161    0.0008 C   0  0  0  0  0  0  0  0  0  0  0  0
    5.2311    1.2232    0.0008 C   0  0  0  0  0  0  0  0  0  0  0  0
    4.6759   -2.1720   -0.0013 H   0  0  0  0  0  0  0  0  0  0  0  0
    7.1781   -2.1701   -0.0013 H   0  0  0  0  0  0  0  0  0  0  0  0
    8.4343    0.0001    0.0000 H   0  0  0  0  0  0  0  0  0  0  0  0
    7.1780    2.1703    0.0013 H   0  0  0  0  0  0  0  0  0  0  0  0
    4.6758    2.1720    0.0013 H   0  0  0  0  0  0  0  0  0  0  0  0
  2  1  1  0  0  0  0
  3  2  1  0  0  0  0
  4  3  3  0  0  0  0
  4  5  1  0  0  0  0
  5 10  1  0  0  0  0
  6  7  1  0  0  0  0
  6  5  2  0  0  0  0
  7  8  2  0  0  0  0
  8 13  1  0  0  0  0
  8  9  1  0  0  0  0
  9 14  1  0  0  0  0
 10  9  2  0  0  0  0
 10 15  1  0  0  0  0
 11  6  1  0  0  0  0
 12  7  1  0  0  0  0
M  END
