2
 OpenBabel05122313113D

 26 26  0  0  0  0  0  0  0  0999 V2000
   -1.7864    0.9793   -0.0924 C   0  0  0  0  0  3  0  0  0  0  0  0
   -0.9115    1.9667   -0.1023 C   0  0  0  0  0  3  0  0  0  0  0  0
   -3.1876    0.6079   -0.1440 C   0  0  0  0  0  0  0  0  0  0  0  0
   -4.1676    1.3243    0.5897 C   0  0  0  0  0  0  0  0  0  0  0  0
   -3.8478    2.1699    1.2171 H   0  0  0  0  0  0  0  0  0  0  0  0
   -5.5179    0.9529    0.5399 C   0  0  0  0  0  0  0  0  0  0  0  0
   -6.2599    1.5193    1.1242 H   0  0  0  0  0  0  0  0  0  0  0  0
   -5.9281   -0.1354   -0.2484 C   0  0  0  0  0  0  0  0  0  0  0  0
   -6.9894   -0.4242   -0.2872 H   0  0  0  0  0  0  0  0  0  0  0  0
   -4.9695   -0.8543   -0.9834 C   0  0  0  0  0  0  0  0  0  0  0  0
   -5.2805   -1.7079   -1.6059 H   0  0  0  0  0  0  0  0  0  0  0  0
   -3.6182   -0.4936   -0.9249 C   0  0  0  0  0  0  0  0  0  0  0  0
   -2.8597   -1.0551   -1.4917 H   0  0  0  0  0  0  0  0  0  0  0  0
   -0.7971    3.4619   -0.2170 C   0  0  0  0  0  0  0  0  0  0  0  0
   -1.9990    4.0087   -1.0158 C   0  0  0  0  0  0  0  0  0  0  0  0
   -2.9583    3.7388   -0.5316 H   0  0  0  0  0  0  0  0  0  0  0  0
   -2.0117    3.5882   -2.0413 H   0  0  0  0  0  0  0  0  0  0  0  0
   -1.9494    5.1152   -1.0940 H   0  0  0  0  0  0  0  0  0  0  0  0
   -0.8036    4.0575    1.2092 C   0  0  0  0  0  0  0  0  0  0  0  0
    0.0328    3.6474    1.8100 H   0  0  0  0  0  0  0  0  0  0  0  0
   -1.7483    3.8147    1.7360 H   0  0  0  0  0  0  0  0  0  0  0  0
   -0.6986    5.1625    1.1715 H   0  0  0  0  0  0  0  0  0  0  0  0
    0.5147    3.8479   -0.9249 C   0  0  0  0  0  0  0  0  0  0  0  0
    1.3855    3.4656   -0.3579 H   0  0  0  0  0  0  0  0  0  0  0  0
    0.6075    4.9505   -1.0120 H   0  0  0  0  0  0  0  0  0  0  0  0
    0.5561    3.4117   -1.9433 H   0  0  0  0  0  0  0  0  0  0  0  0
  2  1  2  0  0  0  0
  3  1  1  0  0  0  0
  3  4  1  0  0  0  0
  4  5  1  0  0  0  0
  6  4  2  0  0  0  0
  6  7  1  0  0  0  0
  8  6  1  0  0  0  0
  9  8  1  0  0  0  0
 10 12  1  0  0  0  0
 10  8  2  0  0  0  0
 11 10  1  0  0  0  0
 12  3  2  0  0  0  0
 13 12  1  0  0  0  0
 14  2  1  0  0  0  0
 14 19  1  0  0  0  0
 15 16  1  0  0  0  0
 15 14  1  0  0  0  0
 17 15  1  0  0  0  0
 18 15  1  0  0  0  0
 19 21  1  0  0  0  0
 19 20  1  0  0  0  0
 22 19  1  0  0  0  0
 23 24  1  0  0  0  0
 23 14  1  0  0  0  0
 25 23  1  0  0  0  0
 26 23  1  0  0  0  0
M  END
