5
 OpenBabel05122313113D

 25 26  0  0  0  0  0  0  0  0999 V2000
    1.7745   -1.2656   -1.2824 N   0  0  0  0  0  0  0  0  0  0  0  0
    2.7449   -1.3217   -0.3171 N   0  0  0  0  0  0  0  0  0  0  0  0
    0.0778   -0.7711   -2.4601 N   0  0  0  0  0  0  0  0  0  0  0  0
    0.7316   -1.7451   -3.1696 N   0  0  0  0  0  0  0  0  0  0  0  0
    0.6693   -0.4256   -1.2859 C   0  0  0  0  0  2  0  0  0  0  0  0
    1.7719   -2.0362   -2.4356 C   0  0  0  0  0  0  0  0  0  0  0  0
    2.5457   -2.7767   -2.6701 H   0  0  0  0  0  0  0  0  0  0  0  0
    3.8655   -0.4800   -0.2823 C   0  0  0  0  0  0  0  0  0  0  0  0
    4.5464   -0.8188    0.8781 C   0  0  0  0  0  0  0  0  0  0  0  0
    5.4918   -0.3689    1.2013 H   0  0  0  0  0  0  0  0  0  0  0  0
    3.8424   -1.8821    1.5277 C   0  0  0  0  0  0  0  0  0  0  0  0
    4.1387   -2.3936    2.4507 H   0  0  0  0  0  0  0  0  0  0  0  0
    2.7193   -2.1961    0.7772 C   0  0  0  0  0  0  0  0  0  0  0  0
    4.2368    0.4028   -1.4273 C   0  0  0  0  0  0  0  0  0  0  0  0
    4.8548   -0.1381   -2.1768 H   0  0  0  0  0  0  0  0  0  0  0  0
    4.8345    1.2633   -1.0727 H   0  0  0  0  0  0  0  0  0  0  0  0
    3.3546    0.8002   -1.9671 H   0  0  0  0  0  0  0  0  0  0  0  0
    1.6796   -3.2518    0.9364 C   0  0  0  0  0  0  0  0  0  0  0  0
    1.7960   -3.7406    1.9209 H   0  0  0  0  0  0  0  0  0  0  0  0
    1.7613   -4.0445    0.1611 H   0  0  0  0  0  0  0  0  0  0  0  0
    0.6481   -2.8516    0.8806 H   0  0  0  0  0  0  0  0  0  0  0  0
   -1.1431   -0.2062   -3.0153 C   0  0  0  0  0  0  0  0  0  0  0  0
   -1.6826    0.3141   -2.2032 H   0  0  0  0  0  0  0  0  0  0  0  0
   -1.7672   -1.0262   -3.4097 H   0  0  0  0  0  0  0  0  0  0  0  0
   -0.9001    0.5007   -3.8326 H   0  0  0  0  0  0  0  0  0  0  0  0
  1  2  1  0  0  0  0
  2  8  1  0  0  0  0
  2 13  1  0  0  0  0
  3  5  1  0  0  0  0
  4  3  1  0  0  0  0
  4  6  2  0  0  0  0
  5  1  1  0  0  0  0
  6  1  1  0  0  0  0
  7  6  1  0  0  0  0
  8  9  2  0  0  0  0
  9 10  1  0  0  0  0
  9 11  1  0  0  0  0
 11 12  1  0  0  0  0
 13 18  1  0  0  0  0
 13 11  2  0  0  0  0
 14 16  1  0  0  0  0
 14  8  1  0  0  0  0
 15 14  1  0  0  0  0
 17 14  1  0  0  0  0
 18 19  1  0  0  0  0
 20 18  1  0  0  0  0
 21 18  1  0  0  0  0
 22  3  1  0  0  0  0
 22 23  1  0  0  0  0
 24 22  1  0  0  0  0
 25 22  1  0  0  0  0
M  END
