4
 OpenBabel05122313113D

 22 23  0  0  0  0  0  0  0  0999 V2000
   -0.7163    0.9134    0.3473 B   0  0  0  0  0  0  0  0  0  0  0  0
    0.0238    0.5757    1.5810 N   0  0  0  0  0  0  0  0  0  0  0  0
   -0.3954   -0.0683    2.2592 H   0  0  0  0  0  0  0  0  0  0  0  0
    1.3302    0.9721    1.8592 C   0  0  0  0  0  3  0  0  0  0  0  0
    1.7695    0.6514    2.8138 H   0  0  0  0  0  0  0  0  0  0  0  0
    2.0076    1.8340    0.9711 C   0  0  0  0  0  0  0  0  0  0  0  0
    3.0317    2.1437    1.2165 H   0  0  0  0  0  0  0  0  0  0  0  0
    1.4179    2.1704   -0.2905 C   0  0  0  0  0  0  0  0  0  0  0  0
    2.0354    2.7352   -1.0069 H   0  0  0  0  0  0  0  0  0  0  0  0
    0.1191    1.7367   -0.6371 C   0  0  0  0  0  0  0  0  0  0  0  0
   -0.2382    1.9578   -1.6536 H   0  0  0  0  0  0  0  0  0  0  0  0
   -2.1819    0.3915    0.1711 C   0  0  0  0  0  0  0  0  0  0  0  0
   -2.6176   -0.8306    0.7362 C   0  0  0  0  0  0  0  0  0  0  0  0
   -1.9027   -1.4695    1.2827 H   0  0  0  0  0  0  0  0  0  0  0  0
   -3.9364   -1.2788    0.5813 C   0  0  0  0  0  0  0  0  0  0  0  0
   -4.2476   -2.2387    1.0210 H   0  0  0  0  0  0  0  0  0  0  0  0
   -4.8565   -0.5070   -0.1474 C   0  0  0  0  0  0  0  0  0  0  0  0
   -5.8929   -0.8564   -0.2724 H   0  0  0  0  0  0  0  0  0  0  0  0
   -4.4471    0.7065   -0.7228 C   0  0  0  0  0  0  0  0  0  0  0  0
   -5.1638    1.3127   -1.2979 H   0  0  0  0  0  0  0  0  0  0  0  0
   -3.1240    1.1451   -0.5666 C   0  0  0  0  0  0  0  0  0  0  0  0
   -2.8141    2.1000   -1.0204 H   0  0  0  0  0  0  0  0  0  0  0  0
  1  2  1  0  0  0  0
  2  4  1  0  0  0  0
  2  3  1  0  0  0  0
  4  5  1  0  0  0  0
  6  7  1  0  0  0  0
  6  4  1  0  0  0  0
  8  6  2  0  0  0  0
  9  8  1  0  0  0  0
 10  8  1  0  0  0  0
 10  1  2  0  0  0  0
 11 10  1  0  0  0  0
 12  1  1  0  0  0  0
 12 13  1  0  0  0  0
 13 14  1  0  0  0  0
 15 13  2  0  0  0  0
 15 16  1  0  0  0  0
 17 15  1  0  0  0  0
 18 17  1  0  0  0  0
 19 21  1  0  0  0  0
 19 17  2  0  0  0  0
 20 19  1  0  0  0  0
 21 12  2  0  0  0  0
 22 21  1  0  0  0  0
M  END
