21
 OpenBabel05122313113D

 61 65  0  0  0  0  0  0  0  0999 V2000
    1.1496    1.2291   -2.0241 N   0  0  0  0  0  0  0  0  0  0  0  0
   -0.2711   -0.3872   -1.9199 N   0  0  0  0  0  0  0  0  0  0  0  0
   -2.7864    0.8776   -0.8012 N   0  0  0  0  0  0  0  0  0  0  0  0
   -2.2679    2.1267   -0.6840 N   0  0  0  0  0  0  0  0  0  0  0  0
   -3.0832   -0.2104    1.3219 N   0  0  0  0  0  0  0  0  0  0  0  0
   -4.3813   -0.6062    1.2550 N   0  0  0  0  0  0  0  0  0  0  0  0
    2.2495    2.1496   -1.7583 C   0  0  0  0  0  0  0  0  0  0  0  0
    2.3086    2.8299   -2.6334 H   0  0  0  0  0  0  0  0  0  0  0  0
    3.1947    1.5784   -1.7388 H   0  0  0  0  0  0  0  0  0  0  0  0
    2.0917    2.9568   -0.4852 C   0  0  0  0  0  0  0  0  0  0  0  0
    3.2406    3.4481    0.1633 C   0  0  0  0  0  0  0  0  0  0  0  0
    4.2389    3.1898   -0.2244 H   0  0  0  0  0  0  0  0  0  0  0  0
    3.1206    4.2432    1.3123 C   0  0  0  0  0  0  0  0  0  0  0  0
    4.0262    4.6122    1.8172 H   0  0  0  0  0  0  0  0  0  0  0  0
    1.8515    4.5508    1.8273 C   0  0  0  0  0  0  0  0  0  0  0  0
    1.7585    5.1659    2.7351 H   0  0  0  0  0  0  0  0  0  0  0  0
    0.7055    4.0517    1.1895 C   0  0  0  0  0  0  0  0  0  0  0  0
   -0.2955    4.2686    1.5941 H   0  0  0  0  0  0  0  0  0  0  0  0
    0.8209    3.2576    0.0387 C   0  0  0  0  0  0  0  0  0  0  0  0
   -0.0933    2.8448   -0.4175 H   0  0  0  0  0  0  0  0  0  0  0  0
    0.8952    0.0681   -1.3317 C   0  0  0  0  0  2  0  0  0  0  0  0
    0.1929    1.4770   -3.0000 C   0  0  0  0  0  0  0  0  0  0  0  0
    0.2268    2.3646   -3.6376 H   0  0  0  0  0  0  0  0  0  0  0  0
   -0.7046    0.4507   -2.9434 C   0  0  0  0  0  0  0  0  0  0  0  0
   -1.6240    0.2618   -3.5027 H   0  0  0  0  0  0  0  0  0  0  0  0
   -0.9997   -1.5655   -1.5389 C   0  0  0  0  0  0  0  0  0  0  0  0
   -0.7000   -2.7812   -2.1705 C   0  0  0  0  0  0  0  0  0  0  0  0
    0.1002   -2.8083   -2.9223 H   0  0  0  0  0  0  0  0  0  0  0  0
   -1.3999   -3.9421   -1.8162 C   0  0  0  0  0  0  0  0  0  0  0  0
   -1.1540   -4.8980   -2.3015 H   0  0  0  0  0  0  0  0  0  0  0  0
   -2.3987   -3.8753   -0.8344 C   0  0  0  0  0  0  0  0  0  0  0  0
   -2.9464   -4.7832   -0.5413 H   0  0  0  0  0  0  0  0  0  0  0  0
   -2.7065   -2.6552   -0.2166 C   0  0  0  0  0  0  0  0  0  0  0  0
   -3.4951   -2.5965    0.5451 H   0  0  0  0  0  0  0  0  0  0  0  0
   -2.0223   -1.4793   -0.5655 C   0  0  0  0  0  0  0  0  0  0  0  0
   -2.2775   -0.1395    0.1173 C   0  0  0  0  0  0  0  0  0  0  0  0
   -1.2937    0.2589    0.4337 H   0  0  0  0  0  0  0  0  0  0  0  0
   -4.5855   -0.4246   -2.0463 C   0  0  0  0  0  0  0  0  0  0  0  0
   -3.9712   -1.2025   -2.5456 H   0  0  0  0  0  0  0  0  0  0  0  0
   -5.4230   -0.1633   -2.7195 H   0  0  0  0  0  0  0  0  0  0  0  0
   -4.9913   -0.8661   -1.1143 H   0  0  0  0  0  0  0  0  0  0  0  0
   -3.7995    0.8063   -1.7335 C   0  0  0  0  0  0  0  0  0  0  0  0
   -3.9064    2.0959   -2.2540 C   0  0  0  0  0  0  0  0  0  0  0  0
   -4.6139    2.4227   -3.0242 H   0  0  0  0  0  0  0  0  0  0  0  0
   -2.9353    2.8797   -1.5685 C   0  0  0  0  0  0  0  0  0  0  0  0
   -2.6079    4.3304   -1.7432 C   0  0  0  0  0  0  0  0  0  0  0  0
   -3.5072    4.9662   -1.6126 H   0  0  0  0  0  0  0  0  0  0  0  0
   -2.2091    4.5368   -2.7586 H   0  0  0  0  0  0  0  0  0  0  0  0
   -1.8475    4.6465   -1.0044 H   0  0  0  0  0  0  0  0  0  0  0  0
   -1.3740    0.7753    2.9048 C   0  0  0  0  0  0  0  0  0  0  0  0
   -0.5987   -0.0121    2.8206 H   0  0  0  0  0  0  0  0  0  0  0  0
   -1.3588    1.1467    3.9454 H   0  0  0  0  0  0  0  0  0  0  0  0
   -1.0731    1.6120    2.2411 H   0  0  0  0  0  0  0  0  0  0  0  0
   -2.7313    0.2540    2.5715 C   0  0  0  0  0  0  0  0  0  0  0  0
   -3.8756    0.1140    3.3517 C   0  0  0  0  0  0  0  0  0  0  0  0
   -3.9717    0.3708    4.4121 H   0  0  0  0  0  0  0  0  0  0  0  0
   -4.8737   -0.4223    2.4878 C   0  0  0  0  0  0  0  0  0  0  0  0
   -6.2938   -0.7720    2.8058 C   0  0  0  0  0  0  0  0  0  0  0  0
   -6.8113   -1.1267    1.8947 H   0  0  0  0  0  0  0  0  0  0  0  0
   -6.8458    0.1043    3.2035 H   0  0  0  0  0  0  0  0  0  0  0  0
   -6.3530   -1.5706    3.5741 H   0  0  0  0  0  0  0  0  0  0  0  0
  1  7  1  0  0  0  0
  1 21  1  0  0  0  0
  2 26  1  0  0  0  0
  2 21  1  0  0  0  0
  3  4  1  0  0  0  0
  3 36  1  0  0  0  0
  5 54  1  0  0  0  0
  6  5  1  0  0  0  0
  6 57  2  0  0  0  0
  7  9  1  0  0  0  0
  7 10  1  0  0  0  0
  8  7  1  0  0  0  0
 10 19  2  0  0  0  0
 10 11  1  0  0  0  0
 11 13  2  0  0  0  0
 12 11  1  0  0  0  0
 13 14  1  0  0  0  0
 13 15  1  0  0  0  0
 15 16  1  0  0  0  0
 17 18  1  0  0  0  0
 17 15  2  0  0  0  0
 19 17  1  0  0  0  0
 20 19  1  0  0  0  0
 22 24  2  0  0  0  0
 22  1  1  0  0  0  0
 23 22  1  0  0  0  0
 24  2  1  0  0  0  0
 25 24  1  0  0  0  0
 26 35  1  0  0  0  0
 27 29  1  0  0  0  0
 27 26  2  0  0  0  0
 28 27  1  0  0  0  0
 29 31  2  0  0  0  0
 30 29  1  0  0  0  0
 31 32  1  0  0  0  0
 31 33  1  0  0  0  0
 33 34  1  0  0  0  0
 35 33  2  0  0  0  0
 35 36  1  0  0  0  0
 36 37  1  0  0  0  0
 36  5  1  0  0  0  0
 38 42  1  0  0  0  0
 38 41  1  0  0  0  0
 39 38  1  0  0  0  0
 40 38  1  0  0  0  0
 42  3  1  0  0  0  0
 43 42  2  0  0  0  0
 43 45  1  0  0  0  0
 44 43  1  0  0  0  0
 45  4  2  0  0  0  0
 46 47  1  0  0  0  0
 46 45  1  0  0  0  0
 46 49  1  0  0  0  0
 48 46  1  0  0  0  0
 50 52  1  0  0  0  0
 51 50  1  0  0  0  0
 53 50  1  0  0  0  0
 54 50  1  0  0  0  0
 54 55  2  0  0  0  0
 55 56  1  0  0  0  0
 57 58  1  0  0  0  0
 57 55  1  0  0  0  0
 58 60  1  0  0  0  0
 58 61  1  0  0  0  0
 59 58  1  0  0  0  0
M  END
