2
 OpenBabel05122313113D

 16 17  0  0  0  0  0  0  0  0999 V2000
   -1.1737    0.5501    0.0008 O   0  0  0  0  0  0  0  0  0  0  0  0
   -0.2486   -0.4580   -0.0005 C   0  0  0  0  0  3  0  0  0  0  0  0
   -0.8079   -1.7833   -0.0020 C   0  0  0  0  0  0  0  0  0  0  0  0
   -2.1654   -2.0216   -0.0022 C   0  0  0  0  0  0  0  0  0  0  0  0
   -3.0895   -0.9270   -0.0011 C   0  0  0  0  0  0  0  0  0  0  0  0
   -4.5026   -1.0489   -0.0013 C   0  0  0  0  0  3  0  0  0  0  0  0
   -5.3050    0.0903    0.0001 C   0  0  0  0  0  0  0  0  0  0  0  0
   -4.7166    1.3768    0.0018 C   0  0  0  0  0  0  0  0  0  0  0  0
   -3.3282    1.5289    0.0020 C   0  0  0  0  0  0  0  0  0  0  0  0
   -2.5264    0.3757    0.0005 C   0  0  0  0  0  0  0  0  0  0  0  0
   -0.1044   -2.6261   -0.0030 H   0  0  0  0  0  0  0  0  0  0  0  0
   -2.5556   -3.0520   -0.0033 H   0  0  0  0  0  0  0  0  0  0  0  0
   -4.9493   -2.0549   -0.0025 H   0  0  0  0  0  0  0  0  0  0  0  0
   -6.4003   -0.0082   -0.0000 H   0  0  0  0  0  0  0  0  0  0  0  0
   -5.3585    2.2703    0.0029 H   0  0  0  0  0  0  0  0  0  0  0  0
   -2.8420    2.5147    0.0033 H   0  0  0  0  0  0  0  0  0  0  0  0
  2  1  1  0  0  0  0
  3  2  2  0  0  0  0
  4  3  1  0  0  0  0
  4  5  2  0  0  0  0
  5 10  1  0  0  0  0
  6  5  1  0  0  0  0
  6  7  1  0  0  0  0
  7  8  2  0  0  0  0
  8  9  1  0  0  0  0
  8 15  1  0  0  0  0
  9 16  1  0  0  0  0
 10  1  1  0  0  0  0
 10  9  2  0  0  0  0
 11  3  1  0  0  0  0
 12  4  1  0  0  0  0
 13  6  1  0  0  0  0
 14  7  1  0  0  0  0
M  END
