2
 OpenBabel05122313113D

 13 13  0  0  0  0  0  0  0  0999 V2000
   -4.5330   -3.0482    0.9693 N   0  0  0  0  0  0  0  0  0  0  0  0
   -1.8332   -1.0923   -0.7091 C   0  0  0  0  0  3  0  0  0  0  0  0
   -2.5223   -0.6345   -1.8543 C   0  0  0  0  0  0  0  0  0  0  0  0
   -3.8552   -1.0288   -2.0737 C   0  0  0  0  0  0  0  0  0  0  0  0
   -4.5288   -1.8425   -1.1552 C   0  0  0  0  0  0  0  0  0  0  0  0
   -3.8606   -2.2942    0.0086 C   0  0  0  0  0  0  0  0  0  0  0  0
   -2.5095   -1.9190    0.2032 C   0  0  0  0  0  0  0  0  0  0  0  0
   -2.0312    0.0282   -2.5829 H   0  0  0  0  0  0  0  0  0  0  0  0
   -4.3835   -0.6854   -2.9781 H   0  0  0  0  0  0  0  0  0  0  0  0
   -5.5785   -2.1298   -1.3280 H   0  0  0  0  0  0  0  0  0  0  0  0
   -3.9297   -3.5849    1.5949 H   0  0  0  0  0  0  0  0  0  0  0  0
   -5.3166   -3.6038    0.6217 H   0  0  0  0  0  0  0  0  0  0  0  0
   -1.9844   -2.2936    1.0974 H   0  0  0  0  0  0  0  0  0  0  0  0
  1 11  1  0  0  0  0
  2  7  1  0  0  0  0
  3  2  2  0  0  0  0
  4  3  1  0  0  0  0
  4  5  2  0  0  0  0
  5  6  1  0  0  0  0
  6  7  2  0  0  0  0
  6  1  1  0  0  0  0
  7 13  1  0  0  0  0
  8  3  1  0  0  0  0
  9  4  1  0  0  0  0
 10  5  1  0  0  0  0
 12  1  1  0  0  0  0
M  END
