2
 OpenBabel05122313113D

 36 38  0  0  1  0  0  0  0  0999 V2000
   -0.2260   -0.2059    0.6548 C   0  0  2  0  0  3  0  0  0  0  0  0
    0.7434   -0.1295    1.6990 C   0  0  0  0  0  3  0  0  0  0  0  0
    1.9404    0.6175    1.5380 C   0  0  0  0  0  0  0  0  0  0  0  0
    2.1766    1.2478    0.2684 C   0  0  0  0  0  0  0  0  0  0  0  0
    1.2280    1.0512   -0.7668 C   0  0  0  0  0  3  0  0  0  0  0  0
   -0.2456    0.8931   -0.3994 C   0  0  2  0  0  0  0  0  0  0  0  0
   -1.2937   -1.2354    0.8594 C   0  0  0  0  0  0  0  0  0  0  0  0
   -2.5332   -1.2174    0.0549 C   0  0  0  0  0  0  0  0  0  0  0  0
   -3.2030   -0.2354   -0.6775 C   0  0  0  0  0  0  0  0  0  0  0  0
   -4.4314   -0.6966   -1.2245 C   0  0  0  0  0  0  0  0  0  0  0  0
   -4.6837   -2.0233   -0.9084 C   0  0  0  0  0  0  0  0  0  0  0  0
   -0.9287    2.2064   -0.0309 C   0  0  0  0  0  0  0  0  0  0  0  0
   -1.2654    2.5363    1.2947 C   0  0  0  0  0  0  0  0  0  0  0  0
   -1.8729    3.7664    1.5933 C   0  0  0  0  0  0  0  0  0  0  0  0
   -2.1507    4.6855    0.5705 C   0  0  0  0  0  0  0  0  0  0  0  0
   -1.8228    4.3651   -0.7575 C   0  0  0  0  0  0  0  0  0  0  0  0
   -1.2199    3.1348   -1.0529 C   0  0  0  0  0  0  0  0  0  0  0  0
    3.7550    2.3389   -1.1443 C   0  0  0  0  0  0  0  0  0  0  0  0
    3.3758    1.8559    0.1383 O   0  0  0  0  0  0  0  0  0  0  0  0
   -1.1346   -2.1327    1.6989 O   0  0  0  0  0  0  0  0  0  0  0  0
   -3.4492   -2.7096    0.0761 S   0  0  0  0  0  0  0  0  0  0  0  0
    0.5824   -0.7443    2.5973 H   0  0  0  0  0  0  0  0  0  0  0  0
    2.7004    0.6914    2.3261 H   0  0  0  0  0  0  0  0  0  0  0  0
    1.4730    1.3905   -1.7823 H   0  0  0  0  0  0  0  0  0  0  0  0
   -0.7470    0.4918   -1.3025 H   0  0  0  0  0  0  0  0  0  0  0  0
   -2.8513    0.7989   -0.7751 H   0  0  0  0  0  0  0  0  0  0  0  0
   -5.1086   -0.0756   -1.8268 H   0  0  0  0  0  0  0  0  0  0  0  0
   -5.5456   -2.6324   -1.2094 H   0  0  0  0  0  0  0  0  0  0  0  0
   -1.0582    1.8181    2.1016 H   0  0  0  0  0  0  0  0  0  0  0  0
   -2.1340    4.0062    2.6354 H   0  0  0  0  0  0  0  0  0  0  0  0
   -2.6278    5.6489    0.8057 H   0  0  0  0  0  0  0  0  0  0  0  0
   -2.0450    5.0761   -1.5680 H   0  0  0  0  0  0  0  0  0  0  0  0
   -0.9727    2.8835   -2.0977 H   0  0  0  0  0  0  0  0  0  0  0  0
    4.7284    2.8432   -1.0069 H   0  0  0  0  0  0  0  0  0  0  0  0
    3.8797    1.5041   -1.8673 H   0  0  0  0  0  0  0  0  0  0  0  0
    3.0154    3.0669   -1.5420 H   0  0  0  0  0  0  0  0  0  0  0  0
  1  7  1  1  0  0  0
  1  2  1  0  0  0  0
  2 22  1  0  0  0  0
  3  2  1  0  0  0  0
  3 23  1  0  0  0  0
  4  3  2  0  0  0  0
  5  6  1  0  0  0  0
  5  4  1  0  0  0  0
  6 25  1  6  0  0  0
  6 12  1  0  0  0  0
  6  1  1  0  0  0  0
  7 20  2  0  0  0  0
  8 21  1  0  0  0  0
  8  7  1  0  0  0  0
  9  8  2  0  0  0  0
 10 11  2  0  0  0  0
 10  9  1  0  0  0  0
 11 21  1  0  0  0  0
 12 13  1  0  0  0  0
 13 14  2  0  0  0  0
 13 29  1  0  0  0  0
 14 30  1  0  0  0  0
 15 31  1  0  0  0  0
 15 14  1  0  0  0  0
 16 15  2  0  0  0  0
 17 16  1  0  0  0  0
 17 12  2  0  0  0  0
 18 34  1  0  0  0  0
 18 19  1  0  0  0  0
 19  4  1  0  0  0  0
 24  5  1  0  0  0  0
 26  9  1  0  0  0  0
 27 10  1  0  0  0  0
 28 11  1  0  0  0  0
 32 16  1  0  0  0  0
 33 17  1  0  0  0  0
 35 18  1  0  0  0  0
 36 18  1  0  0  0  0
M  END
