4
 OpenBabel05122313113D

 35 34  0  0  0  0  0  0  0  0999 V2000
    1.4903    0.3148    0.2425 S   0  0  0  0  0  0  0  0  0  0  0  0
    0.3881    3.0939    0.5209 Si  0  0  0  0  0  0  0  0  0  0  0  0
    4.1928   -0.9528   -0.6122 Si  0  0  0  0  0  0  0  0  0  0  0  0
   -0.9167    1.6663   -1.6622 C   0  0  0  0  0  3  0  0  0  0  0  0
   -1.0541    2.2807   -0.3879 C   0  0  0  0  0  3  0  0  0  0  0  0
    0.6136    4.8994    0.0188 C   0  0  0  0  0  0  0  0  0  0  0  0
    0.1849    2.9013    2.3814 C   0  0  0  0  0  0  0  0  0  0  0  0
    1.8888    2.0682   -0.0899 C   0  0  0  0  0  0  0  0  0  0  0  0
    2.3725   -0.5765   -1.0912 C   0  0  0  0  0  0  0  0  0  0  0  0
    4.9681   -1.8498   -2.0827 C   0  0  0  0  0  0  0  0  0  0  0  0
    4.1584   -2.0151    0.9410 C   0  0  0  0  0  0  0  0  0  0  0  0
    5.0927    0.6721   -0.2972 C   0  0  0  0  0  0  0  0  0  0  0  0
    5.5943    1.0454    0.8987 C   0  0  0  0  0  0  0  0  0  0  0  0
    0.0478    1.6695   -2.2016 H   0  0  0  0  0  0  0  0  0  0  0  0
   -1.8020    1.5136   -2.3025 H   0  0  0  0  0  0  0  0  0  0  0  0
   -2.0847    2.5445   -0.0828 H   0  0  0  0  0  0  0  0  0  0  0  0
    1.4974    5.3460    0.5188 H   0  0  0  0  0  0  0  0  0  0  0  0
   -0.2764    5.4936    0.3110 H   0  0  0  0  0  0  0  0  0  0  0  0
    0.7442    4.9992   -1.0775 H   0  0  0  0  0  0  0  0  0  0  0  0
   -0.7351    3.4178    2.7239 H   0  0  0  0  0  0  0  0  0  0  0  0
    1.0460    3.3349    2.9294 H   0  0  0  0  0  0  0  0  0  0  0  0
    0.0915    1.8321    2.6595 H   0  0  0  0  0  0  0  0  0  0  0  0
    2.0366    2.2174   -1.1798 H   0  0  0  0  0  0  0  0  0  0  0  0
    2.8420    2.3026    0.4235 H   0  0  0  0  0  0  0  0  0  0  0  0
    2.2467   -0.0235   -2.0448 H   0  0  0  0  0  0  0  0  0  0  0  0
    1.8231   -1.5386   -1.1772 H   0  0  0  0  0  0  0  0  0  0  0  0
    4.9721   -1.2117   -2.9898 H   0  0  0  0  0  0  0  0  0  0  0  0
    4.4092   -2.7785   -2.3181 H   0  0  0  0  0  0  0  0  0  0  0  0
    6.0179   -2.1285   -1.8583 H   0  0  0  0  0  0  0  0  0  0  0  0
    3.6402   -1.4908    1.7691 H   0  0  0  0  0  0  0  0  0  0  0  0
    5.1815   -2.2807    1.2757 H   0  0  0  0  0  0  0  0  0  0  0  0
    3.6004   -2.9539    0.7483 H   0  0  0  0  0  0  0  0  0  0  0  0
    5.2317    1.3652   -1.1505 H   0  0  0  0  0  0  0  0  0  0  0  0
    5.4986    0.4060    1.7937 H   0  0  0  0  0  0  0  0  0  0  0  0
    6.1274    2.0014    1.0447 H   0  0  0  0  0  0  0  0  0  0  0  0
  2  7  1  0  0  0  0
  3 12  1  0  0  0  0
  3 11  1  0  0  0  0
  4  5  1  0  0  0  0
  5 16  1  0  0  0  0
  5  2  1  0  0  0  0
  6 18  1  0  0  0  0
  6 17  1  0  0  0  0
  6  2  1  0  0  0  0
  7 22  1  0  0  0  0
  7 20  1  0  0  0  0
  7 21  1  0  0  0  0
  8  1  1  0  0  0  0
  8 24  1  0  0  0  0
  8  2  1  0  0  0  0
  9  3  1  0  0  0  0
  9  1  1  0  0  0  0
 10 29  1  0  0  0  0
 10  3  1  0  0  0  0
 11 31  1  0  0  0  0
 11 30  1  0  0  0  0
 12 13  2  0  0  0  0
 13 35  1  0  0  0  0
 13 34  1  0  0  0  0
 14  4  1  0  0  0  0
 15  4  1  0  0  0  0
 19  6  1  0  0  0  0
 23  8  1  0  0  0  0
 25  9  1  0  0  0  0
 26  9  1  0  0  0  0
 27 10  1  0  0  0  0
 28 10  1  0  0  0  0
 32 11  1  0  0  0  0
 33 12  1  0  0  0  0
M  END
