4
 OpenBabel05122313113D

 51 53  0  0  0  0  0  0  0  0999 V2000
    0.2807   -0.1382   -1.7017 O   0  0  0  0  0  0  0  0  0  0  0  0
   -1.0613    1.4438    0.0383 O   0  0  0  0  0  0  0  0  0  0  0  0
   -2.4873    2.2218   -1.5608 O   0  0  0  0  0  0  0  0  0  0  0  0
    1.3016    0.3055   -0.9860 C   0  0  0  0  0  2  0  0  0  0  0  0
    0.1029   -1.5387   -2.0068 C   0  0  0  0  0  0  0  0  0  0  0  0
   -0.9507   -1.6410   -3.0893 C   0  0  0  0  0  0  0  0  0  0  0  0
    1.1310    1.7400   -0.7391 C   0  0  0  0  0  0  0  0  0  0  0  0
   -0.0335    2.3091   -0.2975 C   0  0  0  0  0  0  0  0  0  0  0  0
   -2.2447    1.4365   -0.6689 C   0  0  0  0  0  0  0  0  0  0  0  0
   -3.1345    0.3382   -0.1705 C   0  0  0  0  0  0  0  0  0  0  0  0
   -4.4127    0.3708   -0.6603 C   0  0  0  0  0  0  0  0  0  0  0  0
   -0.2219    3.7248    0.0489 C   0  0  0  0  0  0  0  0  0  0  0  0
   -1.2447    4.1134    0.9447 C   0  0  0  0  0  0  0  0  0  0  0  0
   -1.4171    5.4593    1.2883 C   0  0  0  0  0  0  0  0  0  0  0  0
   -0.5740    6.4412    0.7443 C   0  0  0  0  0  0  0  0  0  0  0  0
    0.4433    6.0673   -0.1509 C   0  0  0  0  0  0  0  0  0  0  0  0
    0.6179    4.7240   -0.4977 C   0  0  0  0  0  0  0  0  0  0  0  0
   -5.5686   -0.4702   -0.3549 C   0  0  0  0  0  0  0  0  0  0  0  0
   -5.6918   -1.2575    0.8192 C   0  0  0  0  0  0  0  0  0  0  0  0
   -6.8436   -2.0165    1.0491 C   0  0  0  0  0  0  0  0  0  0  0  0
   -7.8961   -2.0179    0.1165 C   0  0  0  0  0  0  0  0  0  0  0  0
   -7.7980   -1.2332   -1.0434 C   0  0  0  0  0  0  0  0  0  0  0  0
   -6.6535   -0.4591   -1.2682 C   0  0  0  0  0  0  0  0  0  0  0  0
   -2.5634   -0.7363    0.6887 C   0  0  0  0  0  0  0  0  0  0  0  0
   -2.6105   -2.0750    0.2342 C   0  0  0  0  0  0  0  0  0  0  0  0
   -2.0407   -3.1109    0.9861 C   0  0  0  0  0  0  0  0  0  0  0  0
   -1.4098   -2.8299    2.2087 C   0  0  0  0  0  0  0  0  0  0  0  0
   -1.3616   -1.5070    2.6749 C   0  0  0  0  0  0  0  0  0  0  0  0
   -1.9324   -0.4698    1.9235 C   0  0  0  0  0  0  0  0  0  0  0  0
    1.0803   -1.9605   -2.3171 H   0  0  0  0  0  0  0  0  0  0  0  0
   -0.2194   -2.0435   -1.0739 H   0  0  0  0  0  0  0  0  0  0  0  0
   -1.1427   -2.7067   -3.3230 H   0  0  0  0  0  0  0  0  0  0  0  0
   -0.6237   -1.1331   -4.0176 H   0  0  0  0  0  0  0  0  0  0  0  0
   -1.9024   -1.1803   -2.7573 H   0  0  0  0  0  0  0  0  0  0  0  0
    2.0337    2.3655   -0.7495 H   0  0  0  0  0  0  0  0  0  0  0  0
   -4.5943    1.1716   -1.3986 H   0  0  0  0  0  0  0  0  0  0  0  0
   -1.8999    3.3470    1.3822 H   0  0  0  0  0  0  0  0  0  0  0  0
   -2.2161    5.7445    1.9891 H   0  0  0  0  0  0  0  0  0  0  0  0
   -0.7119    7.4994    1.0128 H   0  0  0  0  0  0  0  0  0  0  0  0
    1.0997    6.8329   -0.5911 H   0  0  0  0  0  0  0  0  0  0  0  0
    1.3969    4.4447   -1.2221 H   0  0  0  0  0  0  0  0  0  0  0  0
   -4.8835   -1.2573    1.5621 H   0  0  0  0  0  0  0  0  0  0  0  0
   -6.9244   -2.6136    1.9700 H   0  0  0  0  0  0  0  0  0  0  0  0
   -8.7972   -2.6224    0.3011 H   0  0  0  0  0  0  0  0  0  0  0  0
   -8.6223   -1.2175   -1.7724 H   0  0  0  0  0  0  0  0  0  0  0  0
   -6.5817    0.1671   -2.1712 H   0  0  0  0  0  0  0  0  0  0  0  0
   -3.1006   -2.2949   -0.7263 H   0  0  0  0  0  0  0  0  0  0  0  0
   -2.0755   -4.1439    0.6082 H   0  0  0  0  0  0  0  0  0  0  0  0
   -0.9447   -3.6401    2.7894 H   0  0  0  0  0  0  0  0  0  0  0  0
   -0.8612   -1.2733    3.6265 H   0  0  0  0  0  0  0  0  0  0  0  0
   -1.8761    0.5633    2.2931 H   0  0  0  0  0  0  0  0  0  0  0  0
  1  4  1  0  0  0  0
  3  9  2  0  0  0  0
  4  7  1  0  0  0  0
  5  1  1  0  0  0  0
  5 31  1  0  0  0  0
  6 34  1  0  0  0  0
  6  5  1  0  0  0  0
  7  8  2  0  0  0  0
  8  2  1  0  0  0  0
  8 12  1  0  0  0  0
  9 10  1  0  0  0  0
  9  2  1  0  0  0  0
 10 24  1  0  0  0  0
 11 18  1  0  0  0  0
 11 10  2  0  0  0  0
 12 13  1  0  0  0  0
 13 14  2  0  0  0  0
 13 37  1  0  0  0  0
 14 38  1  0  0  0  0
 15 39  1  0  0  0  0
 15 14  1  0  0  0  0
 16 15  2  0  0  0  0
 17 16  1  0  0  0  0
 17 12  2  0  0  0  0
 18 19  1  0  0  0  0
 19 20  2  0  0  0  0
 19 42  1  0  0  0  0
 20 43  1  0  0  0  0
 21 44  1  0  0  0  0
 21 20  1  0  0  0  0
 22 21  2  0  0  0  0
 23 22  1  0  0  0  0
 23 18  2  0  0  0  0
 24 29  1  0  0  0  0
 25 24  2  0  0  0  0
 25 26  1  0  0  0  0
 26 27  2  0  0  0  0
 27 28  1  0  0  0  0
 27 49  1  0  0  0  0
 28 50  1  0  0  0  0
 29 51  1  0  0  0  0
 29 28  2  0  0  0  0
 30  5  1  0  0  0  0
 32  6  1  0  0  0  0
 33  6  1  0  0  0  0
 35  7  1  0  0  0  0
 36 11  1  0  0  0  0
 40 16  1  0  0  0  0
 41 17  1  0  0  0  0
 45 22  1  0  0  0  0
 46 23  1  0  0  0  0
 47 25  1  0  0  0  0
 48 26  1  0  0  0  0
M  END
