6
 OpenBabel05122313113D

 23 24  0  0  0  0  0  0  0  0999 V2000
   -3.2769    2.5085   -0.0749 O   0  0  0  0  0  0  0  0  0  0  0  0
   -1.3460    1.2164    0.0766 N   0  0  0  0  0  0  0  0  0  0  0  0
   -1.3477   -1.1235   -0.0290 N   0  0  0  0  0  0  0  0  0  0  0  0
   -4.7479   -0.2389   -0.3415 N   0  0  0  0  0  0  0  0  0  0  0  0
   -3.5580   -2.1625   -0.2804 N   0  0  0  0  0  0  0  0  0  0  0  0
   -0.6337    0.0377    0.0858 C   0  0  0  0  0  2  0  0  0  0  0  0
   -2.7664    1.3882   -0.0704 C   0  0  0  0  0  0  0  0  0  0  0  0
   -3.4170    0.1149   -0.1949 C   0  0  0  0  0  0  0  0  0  0  0  0
   -2.7224   -1.0945   -0.1617 C   0  0  0  0  0  0  0  0  0  0  0  0
   -4.7677   -1.6086   -0.3862 C   0  0  0  0  0  0  0  0  0  0  0  0
   -5.7076   -2.1652   -0.4986 H   0  0  0  0  0  0  0  0  0  0  0  0
   -0.6275    2.4792    0.2867 C   0  0  0  0  0  0  0  0  0  0  0  0
    0.4344    2.2355    0.4842 H   0  0  0  0  0  0  0  0  0  0  0  0
   -1.0682    3.0082    1.1523 H   0  0  0  0  0  0  0  0  0  0  0  0
   -0.7304    3.1289   -0.6037 H   0  0  0  0  0  0  0  0  0  0  0  0
   -0.6936   -2.4293    0.0834 C   0  0  0  0  0  0  0  0  0  0  0  0
    0.3989   -2.2567    0.0200 H   0  0  0  0  0  0  0  0  0  0  0  0
   -1.0537   -3.0934   -0.7244 H   0  0  0  0  0  0  0  0  0  0  0  0
   -0.9364   -2.8839    1.0633 H   0  0  0  0  0  0  0  0  0  0  0  0
   -5.8769    0.6809   -0.4166 C   0  0  0  0  0  0  0  0  0  0  0  0
   -6.5795    0.5009    0.4205 H   0  0  0  0  0  0  0  0  0  0  0  0
   -6.4141    0.5581   -1.3774 H   0  0  0  0  0  0  0  0  0  0  0  0
   -5.4772    1.7091   -0.3456 H   0  0  0  0  0  0  0  0  0  0  0  0
  1  7  2  0  0  0  0
  2  6  1  0  0  0  0
  2 12  1  0  0  0  0
  3 16  1  0  0  0  0
  3  6  1  0  0  0  0
  4  8  1  0  0  0  0
  5  9  1  0  0  0  0
  7  2  1  0  0  0  0
  8  9  2  0  0  0  0
  8  7  1  0  0  0  0
  9  3  1  0  0  0  0
 10  4  1  0  0  0  0
 10  5  2  0  0  0  0
 11 10  1  0  0  0  0
 12 13  1  0  0  0  0
 12 14  1  0  0  0  0
 15 12  1  0  0  0  0
 16 19  1  0  0  0  0
 17 16  1  0  0  0  0
 18 16  1  0  0  0  0
 20 23  1  0  0  0  0
 20  4  1  0  0  0  0
 20 21  1  0  0  0  0
 22 20  1  0  0  0  0
M  END
