20
 OpenBabel05122313113D

 35 38  0  0  0  0  0  0  0  0999 V2000
    3.2343    2.7959   -0.0425 C   0  0  0  0  0  0  0  0  0  0  0  0
    2.6849    3.1686   -0.9310 H   0  0  0  0  0  0  0  0  0  0  0  0
    4.2551    3.2185   -0.0527 H   0  0  0  0  0  0  0  0  0  0  0  0
    2.7008    3.1781    0.8521 H   0  0  0  0  0  0  0  0  0  0  0  0
    3.2450    1.2942   -0.0339 C   0  0  0  0  0  0  0  0  0  0  0  0
    4.4507    0.5543   -0.0168 C   0  0  0  0  0  0  0  0  0  0  0  0
    5.4095    1.0931   -0.0128 H   0  0  0  0  0  0  0  0  0  0  0  0
    4.4472   -0.8454   -0.0040 C   0  0  0  0  0  0  0  0  0  0  0  0
    5.7290   -1.6268    0.0158 C   0  0  0  0  0  0  0  0  0  0  0  0
    6.6080   -0.9569    0.0172 H   0  0  0  0  0  0  0  0  0  0  0  0
    5.8081   -2.2930   -0.8680 H   0  0  0  0  0  0  0  0  0  0  0  0
    5.7916   -2.2748    0.9144 H   0  0  0  0  0  0  0  0  0  0  0  0
    3.1780   -1.5037   -0.0101 C   0  0  0  0  0  0  0  0  0  0  0  0
    2.0344   -0.6573   -0.0312 C   0  0  0  0  0  0  0  0  0  0  0  0
    3.0115   -2.9397    0.0042 C   0  0  0  0  0  0  0  0  0  0  0  0
    3.9063   -3.5768    0.0180 H   0  0  0  0  0  0  0  0  0  0  0  0
    1.7694   -3.5236    0.0016 C   0  0  0  0  0  0  0  0  0  0  0  0
    1.6214   -4.6109    0.0133 H   0  0  0  0  0  0  0  0  0  0  0  0
    0.6191   -2.6768   -0.0183 C   0  0  0  0  0  0  0  0  0  0  0  0
   -0.4655   -0.6939   -0.0513 C   0  0  0  0  0  2  0  0  0  0  0  0
   -2.7307   -1.7365   -0.0578 C   0  0  0  0  0  0  0  0  0  0  0  0
   -3.4276   -2.7516    0.6185 C   0  0  0  0  0  0  0  0  0  0  0  0
   -2.8657   -3.5470    1.1258 H   0  0  0  0  0  0  0  0  0  0  0  0
   -4.8281   -2.7246    0.6273 C   0  0  0  0  0  0  0  0  0  0  0  0
   -5.3804   -3.5138    1.1581 H   0  0  0  0  0  0  0  0  0  0  0  0
   -5.5232   -1.6983   -0.0327 C   0  0  0  0  0  0  0  0  0  0  0  0
   -6.6230   -1.6835   -0.0229 H   0  0  0  0  0  0  0  0  0  0  0  0
   -4.8135   -0.6983   -0.7167 C   0  0  0  0  0  0  0  0  0  0  0  0
   -5.3543    0.0940   -1.2548 H   0  0  0  0  0  0  0  0  0  0  0  0
   -3.4124   -0.7147   -0.7397 C   0  0  0  0  0  0  0  0  0  0  0  0
   -2.8500    0.0442   -1.3019 H   0  0  0  0  0  0  0  0  0  0  0  0
    2.0503    0.6754   -0.0419 N   0  0  0  0  0  0  0  0  0  0  0  0
    0.7741   -1.2847   -0.0409 N   0  0  0  0  0  0  0  0  0  0  0  0
   -0.6707   -2.9814   -0.0254 N   0  0  0  0  0  0  0  0  0  0  0  0
   -1.2971   -1.7672   -0.0533 N   0  0  0  0  0  0  0  0  0  0  0  0
  1  5  1  0  0  0  0
  1  4  1  0  0  0  0
  2  1  1  0  0  0  0
  3  1  1  0  0  0  0
  5  6  1  0  0  0  0
  6  7  1  0  0  0  0
  6  8  2  0  0  0  0
  8  9  1  0  0  0  0
  9 10  1  0  0  0  0
  9 12  1  0  0  0  0
 11  9  1  0  0  0  0
 13  8  1  0  0  0  0
 13 15  1  0  0  0  0
 14 13  2  0  0  0  0
 15 16  1  0  0  0  0
 17 15  2  0  0  0  0
 17 18  1  0  0  0  0
 19 17  1  0  0  0  0
 20 33  1  0  0  0  0
 21 35  1  0  0  0  0
 21 22  1  0  0  0  0
 22 24  2  0  0  0  0
 22 23  1  0  0  0  0
 24 25  1  0  0  0  0
 26 27  1  0  0  0  0
 26 24  1  0  0  0  0
 28 26  2  0  0  0  0
 29 28  1  0  0  0  0
 30 28  1  0  0  0  0
 30 21  2  0  0  0  0
 31 30  1  0  0  0  0
 32  5  2  0  0  0  0
 32 14  1  0  0  0  0
 33 14  1  0  0  0  0
 33 19  1  0  0  0  0
 34 19  2  0  0  0  0
 35 20  1  0  0  0  0
 35 34  1  0  0  0  0
M  END
