4
 OpenBabel05122313113D

 34 37  0  0  1  0  0  0  0  0999 V2000
   -5.2360    1.0283    1.5605 N   0  0  0  0  0  0  0  0  0  0  0  0
   -2.3535    0.1081   -0.6375 C   0  0  2  0  0  0  0  0  0  0  0  0
   -2.4502   -0.8358   -1.2131 H   0  0  0  0  0  0  0  0  0  0  0  0
   -1.1591    0.0023    0.3217 C   0  0  0  0  0  3  0  0  0  0  0  0
   -0.4899    1.2365    0.6998 C   0  0  0  0  0  3  0  0  0  0  0  0
   -0.8955    2.5206    0.1018 C   0  0  0  0  0  0  0  0  0  0  0  0
   -0.5191    3.7495    0.6932 C   0  0  0  0  0  0  0  0  0  0  0  0
    0.1074    3.7300    1.5991 H   0  0  0  0  0  0  0  0  0  0  0  0
   -0.9287    4.9760    0.1511 C   0  0  0  0  0  0  0  0  0  0  0  0
   -0.6169    5.9185    0.6278 H   0  0  0  0  0  0  0  0  0  0  0  0
   -1.7447    4.9963   -0.9911 C   0  0  0  0  0  0  0  0  0  0  0  0
   -2.0778    5.9526   -1.4223 H   0  0  0  0  0  0  0  0  0  0  0  0
   -2.1497    3.7820   -1.5695 C   0  0  0  0  0  0  0  0  0  0  0  0
   -2.8110    3.7893   -2.4513 H   0  0  0  0  0  0  0  0  0  0  0  0
   -1.7357    2.5457   -1.0471 C   0  0  0  0  0  0  0  0  0  0  0  0
   -2.1661    1.2426   -1.6730 C   0  0  0  0  0  0  0  0  0  0  0  0
   -1.4057    0.9320   -2.4182 H   0  0  0  0  0  0  0  0  0  0  0  0
   -3.1126    1.3885   -2.2323 H   0  0  0  0  0  0  0  0  0  0  0  0
   -3.6378    0.2540    0.1457 C   0  0  0  0  0  0  0  0  0  0  0  0
   -4.7630   -0.6526    0.1220 C   0  0  0  0  0  0  0  0  0  0  0  0
   -5.0427   -1.8537   -0.5701 C   0  0  0  0  0  0  0  0  0  0  0  0
   -4.3109   -2.2715   -1.2795 H   0  0  0  0  0  0  0  0  0  0  0  0
   -6.2628   -2.5007   -0.3516 C   0  0  0  0  0  0  0  0  0  0  0  0
   -6.4879   -3.4351   -0.8880 H   0  0  0  0  0  0  0  0  0  0  0  0
   -7.2220   -1.9703    0.5468 C   0  0  0  0  0  0  0  0  0  0  0  0
   -8.1748   -2.5002    0.6967 H   0  0  0  0  0  0  0  0  0  0  0  0
   -6.9802   -0.7816    1.2452 C   0  0  0  0  0  0  0  0  0  0  0  0
   -7.7275   -0.3693    1.9405 H   0  0  0  0  0  0  0  0  0  0  0  0
   -5.7518   -0.1341    1.0263 C   0  0  0  0  0  0  0  0  0  0  0  0
   -3.9731    1.2633    1.0392 C   0  0  0  0  0  0  0  0  0  0  0  0
   -3.3937    2.1432    1.3402 H   0  0  0  0  0  0  0  0  0  0  0  0
   -5.7134    1.6297    2.2283 H   0  0  0  0  0  0  0  0  0  0  0  0
   -1.3958   -0.6716    1.1650 H   0  0  0  0  0  0  0  0  0  0  0  0
   -0.1457    1.3255    1.7468 H   0  0  0  0  0  0  0  0  0  0  0  0
  1 32  1  0  0  0  0
  2  3  1  6  0  0  0
  2 19  1  0  0  0  0
  2  4  1  0  0  0  0
  4  5  1  0  0  0  0
  4 33  1  0  0  0  0
  5 34  1  0  0  0  0
  6  7  1  0  0  0  0
  6  5  1  0  0  0  0
  7  8  1  0  0  0  0
  9 10  1  0  0  0  0
  9  7  2  0  0  0  0
 11  9  1  0  0  0  0
 12 11  1  0  0  0  0
 13 15  1  0  0  0  0
 13 11  2  0  0  0  0
 14 13  1  0  0  0  0
 15  6  2  0  0  0  0
 16 15  1  0  0  0  0
 16  2  1  0  0  0  0
 17 16  1  0  0  0  0
 18 16  1  0  0  0  0
 19 30  2  0  0  0  0
 20 19  1  0  0  0  0
 20 29  1  0  0  0  0
 21 23  1  0  0  0  0
 21 20  2  0  0  0  0
 22 21  1  0  0  0  0
 23 25  2  0  0  0  0
 24 23  1  0  0  0  0
 25 26  1  0  0  0  0
 25 27  1  0  0  0  0
 27 28  1  0  0  0  0
 29 27  2  0  0  0  0
 29  1  1  0  0  0  0
 30 31  1  0  0  0  0
 30  1  1  0  0  0  0
M  END
