2
 OpenBabel05122313113D

 33 34  0  0  0  0  0  0  0  0999 V2000
   -0.7955    2.1831   -0.4089 O   0  0  0  0  0  0  0  0  0  0  0  0
    1.6196    1.1827    0.0474 C   0  0  0  0  0  2  0  0  0  0  0  0
    1.4744    2.6135   -0.1366 C   0  0  0  0  0  0  0  0  0  0  0  0
    0.1741    3.1417   -0.3856 C   0  0  0  0  0  0  0  0  0  0  0  0
   -0.0258    4.5128   -0.5946 C   0  0  0  0  0  0  0  0  0  0  0  0
    1.0865    5.3730   -0.5554 C   0  0  0  0  0  0  0  0  0  0  0  0
    2.3797    4.8796   -0.3083 C   0  0  0  0  0  0  0  0  0  0  0  0
    2.5692    3.5083   -0.1003 C   0  0  0  0  0  0  0  0  0  0  0  0
   -2.2204    2.5069   -0.4193 C   0  0  0  0  0  0  0  0  0  0  0  0
   -2.6364    3.0653    0.9461 C   0  0  0  0  0  0  0  0  0  0  0  0
   -4.0433    3.6829    0.9188 C   0  0  0  0  0  0  0  0  0  0  0  0
   -5.2090    2.7105    1.1741 C   0  0  0  0  0  0  0  0  0  0  0  0
   -5.0759    1.3126    0.5420 C   0  0  0  0  0  0  0  0  0  0  0  0
   -4.4550    1.2609   -0.8641 C   0  0  0  0  0  0  0  0  0  0  0  0
   -2.9210    1.2259   -0.8664 C   0  0  0  0  0  0  0  0  0  0  0  0
    2.6398    0.8323    0.2825 H   0  0  0  0  0  0  0  0  0  0  0  0
   -1.0278    4.9176   -0.7888 H   0  0  0  0  0  0  0  0  0  0  0  0
    0.9325    6.4501   -0.7212 H   0  0  0  0  0  0  0  0  0  0  0  0
    3.2365    5.5686   -0.2798 H   0  0  0  0  0  0  0  0  0  0  0  0
    3.5728    3.0967    0.0905 H   0  0  0  0  0  0  0  0  0  0  0  0
   -2.3669    3.2901   -1.1978 H   0  0  0  0  0  0  0  0  0  0  0  0
   -2.5399    2.2611    1.7040 H   0  0  0  0  0  0  0  0  0  0  0  0
   -1.8987    3.8420    1.2324 H   0  0  0  0  0  0  0  0  0  0  0  0
   -4.1867    4.1860   -0.0640 H   0  0  0  0  0  0  0  0  0  0  0  0
   -4.1001    4.4989    1.6685 H   0  0  0  0  0  0  0  0  0  0  0  0
   -5.3451    2.5821    2.2694 H   0  0  0  0  0  0  0  0  0  0  0  0
   -6.1434    3.1922    0.8130 H   0  0  0  0  0  0  0  0  0  0  0  0
   -4.4660    0.6579    1.2021 H   0  0  0  0  0  0  0  0  0  0  0  0
   -6.0861    0.8520    0.5174 H   0  0  0  0  0  0  0  0  0  0  0  0
   -4.8357    2.0963   -1.4940 H   0  0  0  0  0  0  0  0  0  0  0  0
   -4.7909    0.3302   -1.3659 H   0  0  0  0  0  0  0  0  0  0  0  0
   -2.5358    0.9621   -1.8717 H   0  0  0  0  0  0  0  0  0  0  0  0
   -2.5960    0.4087   -0.1840 H   0  0  0  0  0  0  0  0  0  0  0  0
  1  4  1  0  0  0  0
  2 16  1  0  0  0  0
  3  8  1  0  0  0  0
  3  2  1  0  0  0  0
  4  3  2  0  0  0  0
  5  6  2  0  0  0  0
  5  4  1  0  0  0  0
  6  7  1  0  0  0  0
  7 19  1  0  0  0  0
  7  8  2  0  0  0  0
  8 20  1  0  0  0  0
  9  1  1  0  0  0  0
  9 10  1  0  0  0  0
 10 23  1  0  0  0  0
 10 22  1  0  0  0  0
 11 10  1  0  0  0  0
 11 12  1  0  0  0  0
 11 25  1  0  0  0  0
 12 26  1  0  0  0  0
 13 12  1  0  0  0  0
 13 28  1  0  0  0  0
 14 13  1  0  0  0  0
 15 14  1  0  0  0  0
 15  9  1  0  0  0  0
 15 33  1  0  0  0  0
 17  5  1  0  0  0  0
 18  6  1  0  0  0  0
 21  9  1  0  0  0  0
 24 11  1  0  0  0  0
 27 12  1  0  0  0  0
 29 13  1  0  0  0  0
 30 14  1  0  0  0  0
 31 14  1  0  0  0  0
 32 15  1  0  0  0  0
M  END
