6
 OpenBabel05122313113D

 49 52  0  0  1  0  0  0  0  0999 V2000
    1.2801    0.8371    1.0471 P   0  0  0  0  0  0  0  0  0  0  0  0
    2.5322   -1.0186   -3.1929 C   0  0  2  0  0  0  0  0  0  0  0  0
    2.8960    0.0113   -2.0821 C   0  0  1  0  0  3  0  0  0  0  0  0
    3.2446   -0.7670   -0.9641 C   0  0  0  0  0  3  0  0  0  0  0  0
    3.1235   -2.2463   -1.3920 C   0  0  1  0  0  0  0  0  0  0  0  0
    1.5928   -2.3896   -1.5130 C   0  0  0  0  0  3  0  0  0  0  0  0
    1.2200   -1.6316   -2.6541 C   0  0  0  0  0  3  0  0  0  0  0  0
    3.5432   -2.1514   -2.8812 C   0  0  0  0  0  0  0  0  0  0  0  0
    3.2724    1.4270   -2.4177 C   0  0  0  0  0  0  0  0  0  0  0  0
    3.8617    2.3165   -1.3124 C   0  0  0  0  0  0  0  0  0  0  0  0
    2.9218    2.8718   -0.2215 C   0  0  0  0  0  0  0  0  0  0  0  0
    2.7315    2.0119    1.0429 C   0  0  0  0  0  0  0  0  0  0  0  0
    1.6980   -0.1718    2.5426 C   0  0  0  0  0  0  0  0  0  0  0  0
    1.6198    0.3723    3.8414 C   0  0  0  0  0  0  0  0  0  0  0  0
    1.9900   -0.3992    4.9529 C   0  0  0  0  0  0  0  0  0  0  0  0
    2.4420   -1.7180    4.7785 C   0  0  0  0  0  0  0  0  0  0  0  0
    2.5205   -2.2652    3.4882 C   0  0  0  0  0  0  0  0  0  0  0  0
    2.1479   -1.4962    2.3748 C   0  0  0  0  0  0  0  0  0  0  0  0
   -0.1125    1.8655    1.6692 C   0  0  0  0  0  0  0  0  0  0  0  0
   -0.1145    3.2729    1.6094 C   0  0  0  0  0  0  0  0  0  0  0  0
   -1.2308    3.9998    2.0521 C   0  0  0  0  0  0  0  0  0  0  0  0
   -2.3583    3.3308    2.5495 C   0  0  0  0  0  0  0  0  0  0  0  0
   -2.3661    1.9271    2.6079 C   0  0  0  0  0  0  0  0  0  0  0  0
   -1.2519    1.1997    2.1716 C   0  0  0  0  0  0  0  0  0  0  0  0
    2.5015   -0.6145   -4.2213 H   0  0  0  0  0  0  0  0  0  0  0  0
    3.8180   -0.4350   -0.0889 H   0  0  0  0  0  0  0  0  0  0  0  0
    3.6362   -2.9850   -0.7505 H   0  0  0  0  0  0  0  0  0  0  0  0
    1.0056   -3.1893   -1.0413 H   0  0  0  0  0  0  0  0  0  0  0  0
    0.2937   -1.7478   -3.2334 H   0  0  0  0  0  0  0  0  0  0  0  0
    3.3412   -3.0822   -3.4524 H   0  0  0  0  0  0  0  0  0  0  0  0
    4.6021   -1.8421   -3.0132 H   0  0  0  0  0  0  0  0  0  0  0  0
    4.0341    1.3584   -3.2305 H   0  0  0  0  0  0  0  0  0  0  0  0
    2.4104    1.9430   -2.8935 H   0  0  0  0  0  0  0  0  0  0  0  0
    4.7164    1.7912   -0.8313 H   0  0  0  0  0  0  0  0  0  0  0  0
    4.3123    3.1899   -1.8290 H   0  0  0  0  0  0  0  0  0  0  0  0
    3.3490    3.8403    0.1141 H   0  0  0  0  0  0  0  0  0  0  0  0
    1.9392    3.1232   -0.6728 H   0  0  0  0  0  0  0  0  0  0  0  0
    2.6285    2.6466    1.9476 H   0  0  0  0  0  0  0  0  0  0  0  0
    3.6263    1.3804    1.2227 H   0  0  0  0  0  0  0  0  0  0  0  0
    1.2517    1.4004    3.9839 H   0  0  0  0  0  0  0  0  0  0  0  0
    1.9198    0.0306    5.9640 H   0  0  0  0  0  0  0  0  0  0  0  0
    2.7265   -2.3228    5.6532 H   0  0  0  0  0  0  0  0  0  0  0  0
    2.8627   -3.3018    3.3461 H   0  0  0  0  0  0  0  0  0  0  0  0
    2.1711   -1.9181    1.3577 H   0  0  0  0  0  0  0  0  0  0  0  0
    0.7504    3.8182    1.2068 H   0  0  0  0  0  0  0  0  0  0  0  0
   -1.2195    5.0988    1.9957 H   0  0  0  0  0  0  0  0  0  0  0  0
   -3.2358    3.9022    2.8882 H   0  0  0  0  0  0  0  0  0  0  0  0
   -3.2505    1.3919    2.9852 H   0  0  0  0  0  0  0  0  0  0  0  0
   -1.2605    0.1014    2.2225 H   0  0  0  0  0  0  0  0  0  0  0  0
  1 19  1  0  0  0  0
  1 13  1  0  0  0  0
  2 25  1  6  0  0  0
  2  8  1  0  0  0  0
  2  7  1  0  0  0  0
  2  3  1  0  0  0  0
  3  9  1  6  0  0  0
  3  4  1  0  0  0  0
  4 26  1  0  0  0  0
  5  4  1  0  0  0  0
  5 27  1  1  0  0  0
  6  5  1  0  0  0  0
  6 28  1  0  0  0  0
  7  6  1  0  0  0  0
  8  5  1  0  0  0  0
  9 10  1  0  0  0  0
 10 34  1  0  0  0  0
 10 11  1  0  0  0  0
 11 36  1  0  0  0  0
 11 12  1  0  0  0  0
 12  1  1  0  0  0  0
 12 39  1  0  0  0  0
 12 38  1  0  0  0  0
 13 14  1  0  0  0  0
 14 40  1  0  0  0  0
 14 15  2  0  0  0  0
 15 41  1  0  0  0  0
 16 15  1  0  0  0  0
 16 42  1  0  0  0  0
 17 16  2  0  0  0  0
 18 13  2  0  0  0  0
 18 17  1  0  0  0  0
 19 24  1  0  0  0  0
 20 19  2  0  0  0  0
 20 21  1  0  0  0  0
 21 22  2  0  0  0  0
 22 23  1  0  0  0  0
 22 47  1  0  0  0  0
 23 48  1  0  0  0  0
 24 49  1  0  0  0  0
 24 23  2  0  0  0  0
 29  7  1  0  0  0  0
 30  8  1  0  0  0  0
 31  8  1  0  0  0  0
 32  9  1  0  0  0  0
 33  9  1  0  0  0  0
 35 10  1  0  0  0  0
 37 11  1  0  0  0  0
 43 17  1  0  0  0  0
 44 18  1  0  0  0  0
 45 20  1  0  0  0  0
 46 21  1  0  0  0  0
M  END
