3
 OpenBabel05122313113D

 47 49  0  0  0  0  0  0  0  0999 V2000
   -3.0504    2.5590   -0.7272 O   0  0  0  0  0  0  0  0  0  0  0  0
    2.3681    2.8075   -1.0317 O   0  0  0  0  0  0  0  0  0  0  0  0
   -0.0768    0.7946    0.7667 C   0  0  0  0  0  2  0  0  0  0  0  0
   -3.4697    1.4600   -0.0295 C   0  0  0  0  0  0  0  0  0  0  0  0
   -1.2345    1.4653    0.9756 N   0  0  0  0  0  0  0  0  0  0  0  0
   -6.2710   -0.9239    0.4394 O   0  0  0  0  0  0  0  0  0  0  0  0
    6.2390    0.1551   -0.0979 O   0  0  0  0  0  0  0  0  0  0  0  0
   -2.5260    0.8874    0.8581 C   0  0  0  0  0  0  0  0  0  0  0  0
    0.5100    3.0076    1.3417 C   0  0  0  0  0  0  0  0  0  0  0  0
    0.7922    3.7088    0.5302 H   0  0  0  0  0  0  0  0  0  0  0  0
    0.9933    3.3447    2.2809 H   0  0  0  0  0  0  0  0  0  0  0  0
   -5.0668   -0.2928    0.5319 C   0  0  0  0  0  0  0  0  0  0  0  0
   -1.0150    2.8350    1.4825 C   0  0  0  0  0  0  0  0  0  0  0  0
   -1.3559    2.8960    2.5384 H   0  0  0  0  0  0  0  0  0  0  0  0
   -1.5930    3.5634    0.8828 H   0  0  0  0  0  0  0  0  0  0  0  0
    4.9606    0.4751    0.2464 C   0  0  0  0  0  0  0  0  0  0  0  0
   -4.7452    0.8816   -0.1820 C   0  0  0  0  0  0  0  0  0  0  0  0
   -5.4713    1.3322   -0.8668 H   0  0  0  0  0  0  0  0  0  0  0  0
    0.9547    1.6435    0.9978 N   0  0  0  0  0  0  0  0  0  0  0  0
   -2.8663   -0.2846    1.5568 C   0  0  0  0  0  0  0  0  0  0  0  0
   -2.1076   -0.7400    2.2131 H   0  0  0  0  0  0  0  0  0  0  0  0
    3.0257    3.3743   -2.1504 C   0  0  0  0  0  0  0  0  0  0  0  0
    2.3021    4.0651   -2.6211 H   0  0  0  0  0  0  0  0  0  0  0  0
    3.3194    2.5958   -2.8890 H   0  0  0  0  0  0  0  0  0  0  0  0
    3.9329    3.9452   -1.8518 H   0  0  0  0  0  0  0  0  0  0  0  0
    2.3150    1.2905    0.7828 C   0  0  0  0  0  0  0  0  0  0  0  0
    4.3639    1.4896   -0.5358 C   0  0  0  0  0  0  0  0  0  0  0  0
    4.9597    1.9218   -1.3489 H   0  0  0  0  0  0  0  0  0  0  0  0
   -4.1205   -0.8777    1.3965 C   0  0  0  0  0  0  0  0  0  0  0  0
   -4.3899   -1.7970    1.9341 H   0  0  0  0  0  0  0  0  0  0  0  0
   -7.2491   -0.3917   -0.4288 C   0  0  0  0  0  0  0  0  0  0  0  0
   -8.1327   -1.0522   -0.3509 H   0  0  0  0  0  0  0  0  0  0  0  0
   -6.9040   -0.3773   -1.4879 H   0  0  0  0  0  0  0  0  0  0  0  0
   -7.5474    0.6420   -0.1393 H   0  0  0  0  0  0  0  0  0  0  0  0
   -3.9318    3.1398   -1.6686 C   0  0  0  0  0  0  0  0  0  0  0  0
   -3.3880    3.9878   -2.1245 H   0  0  0  0  0  0  0  0  0  0  0  0
   -4.8605    3.5226   -1.1886 H   0  0  0  0  0  0  0  0  0  0  0  0
   -4.2130    2.4191   -2.4686 H   0  0  0  0  0  0  0  0  0  0  0  0
    3.0446    1.8875   -0.2817 C   0  0  0  0  0  0  0  0  0  0  0  0
    4.2377   -0.1325    1.2901 C   0  0  0  0  0  0  0  0  0  0  0  0
    4.6728   -0.9328    1.9015 H   0  0  0  0  0  0  0  0  0  0  0  0
    2.9230    0.2872    1.5467 C   0  0  0  0  0  0  0  0  0  0  0  0
    2.3240   -0.2040    2.3286 H   0  0  0  0  0  0  0  0  0  0  0  0
    6.8821   -0.8824    0.6179 C   0  0  0  0  0  0  0  0  0  0  0  0
    7.8903   -0.9895    0.1765 H   0  0  0  0  0  0  0  0  0  0  0  0
    6.3393   -1.8497    0.5221 H   0  0  0  0  0  0  0  0  0  0  0  0
    6.9845   -0.6399    1.6995 H   0  0  0  0  0  0  0  0  0  0  0  0
  1  4  1  0  0  0  0
  2 39  1  0  0  0  0
  3  5  1  0  0  0  0
  3 19  1  0  0  0  0
  4  8  1  0  0  0  0
  5 13  1  0  0  0  0
  6 12  1  0  0  0  0
  7 16  1  0  0  0  0
  7 44  1  0  0  0  0
  8  5  1  0  0  0  0
  8 20  2  0  0  0  0
  9 13  1  0  0  0  0
  9 11  1  0  0  0  0
 10  9  1  0  0  0  0
 12 29  2  0  0  0  0
 13 14  1  0  0  0  0
 15 13  1  0  0  0  0
 16 40  1  0  0  0  0
 17  4  2  0  0  0  0
 17 12  1  0  0  0  0
 18 17  1  0  0  0  0
 19  9  1  0  0  0  0
 20 21  1  0  0  0  0
 22 25  1  0  0  0  0
 22  2  1  0  0  0  0
 23 22  1  0  0  0  0
 24 22  1  0  0  0  0
 26 19  1  0  0  0  0
 26 42  1  0  0  0  0
 27 39  1  0  0  0  0
 27 16  2  0  0  0  0
 28 27  1  0  0  0  0
 29 20  1  0  0  0  0
 29 30  1  0  0  0  0
 31 32  1  0  0  0  0
 31 34  1  0  0  0  0
 31  6  1  0  0  0  0
 33 31  1  0  0  0  0
 35 37  1  0  0  0  0
 35  1  1  0  0  0  0
 36 35  1  0  0  0  0
 38 35  1  0  0  0  0
 39 26  2  0  0  0  0
 40 42  2  0  0  0  0
 40 41  1  0  0  0  0
 42 43  1  0  0  0  0
 44 47  1  0  0  0  0
 45 44  1  0  0  0  0
 46 44  1  0  0  0  0
M  END
