12
 OpenBabel05122313113D

 34 36  0  0  1  0  0  0  0  0999 V2000
   -0.5448    3.0450    2.3642 O   0  0  0  0  0  0  0  0  0  0  0  0
   -3.6467    2.4425    1.0705 O   0  0  0  0  0  0  0  0  0  0  0  0
   -3.2441    3.2134    1.5131 H   0  0  0  0  0  0  0  0  0  0  0  0
   -4.1903   -2.2371    2.3000 O   0  0  0  0  0  0  0  0  0  0  0  0
   -2.1446    2.9267   -0.8817 C   0  0  1  0  0  0  0  0  0  0  0  0
   -2.2174    3.5549   -1.7928 H   0  0  0  0  0  0  0  0  0  0  0  0
   -1.1159    3.5087    0.0779 C   0  0  0  0  0  0  0  0  0  0  0  0
   -1.4512    4.4722    0.5177 H   0  0  0  0  0  0  0  0  0  0  0  0
   -0.1834    3.7365   -0.4811 H   0  0  0  0  0  0  0  0  0  0  0  0
   -0.7736    2.5760    1.2404 C   0  0  0  0  0  0  0  0  0  0  0  0
   -0.7288    1.1351    0.9600 C   0  0  0  0  0  3  0  0  0  0  0  0
   -1.2303    0.5672   -0.2872 C   0  0  0  0  0  3  0  0  0  0  0  0
   -2.0134    1.4243   -1.2692 C   0  0  1  0  0  0  0  0  0  0  0  0
   -1.6721    1.2580   -2.3116 H   0  0  0  0  0  0  0  0  0  0  0  0
   -3.5919    1.3169   -1.1332 C   0  0  2  0  0  0  0  0  0  0  0  0
   -4.0248    1.5515   -2.1270 H   0  0  0  0  0  0  0  0  0  0  0  0
   -3.5807    2.6506   -0.3269 C   0  0  1  0  0  0  0  0  0  0  0  0
   -4.3609    3.3831   -0.6460 H   0  0  0  0  0  0  0  0  0  0  0  0
   -4.1919    0.0262   -0.6521 C   0  0  0  0  0  0  0  0  0  0  0  0
   -3.9871   -0.4283    0.6713 C   0  0  0  0  0  0  0  0  0  0  0  0
   -3.5055    0.2542    1.3792 H   0  0  0  0  0  0  0  0  0  0  0  0
   -4.3968   -1.7185    1.0543 C   0  0  0  0  0  0  0  0  0  0  0  0
   -5.0400   -2.5644    0.1241 C   0  0  0  0  0  0  0  0  0  0  0  0
   -5.3525   -3.5671    0.4498 H   0  0  0  0  0  0  0  0  0  0  0  0
   -5.2679   -2.1047   -1.1765 C   0  0  0  0  0  0  0  0  0  0  0  0
   -5.7796   -2.7584   -1.8997 H   0  0  0  0  0  0  0  0  0  0  0  0
   -4.8457   -0.8224   -1.5686 C   0  0  0  0  0  0  0  0  0  0  0  0
   -5.0167   -0.4771   -2.6004 H   0  0  0  0  0  0  0  0  0  0  0  0
   -3.5617   -1.4124    3.2666 C   0  0  0  0  0  0  0  0  0  0  0  0
   -2.5318   -1.1207    2.9599 H   0  0  0  0  0  0  0  0  0  0  0  0
   -3.5046   -2.0092    4.1959 H   0  0  0  0  0  0  0  0  0  0  0  0
   -4.1430   -0.4847    3.4630 H   0  0  0  0  0  0  0  0  0  0  0  0
   -0.7581    0.5250    1.8807 H   0  0  0  0  0  0  0  0  0  0  0  0
   -1.7014   -0.4223   -0.1637 H   0  0  0  0  0  0  0  0  0  0  0  0
  2  3  1  0  0  0  0
  4 29  1  0  0  0  0
  5  6  1  6  0  0  0
  5 17  1  0  0  0  0
  5  7  1  0  0  0  0
  7  8  1  0  0  0  0
  7 10  1  0  0  0  0
  9  7  1  0  0  0  0
 10  1  2  0  0  0  0
 11 10  1  0  0  0  0
 11 33  1  0  0  0  0
 12 34  1  0  0  0  0
 12 11  1  0  0  0  0
 13 14  1  6  0  0  0
 13 15  1  0  0  0  0
 13  5  1  0  0  0  0
 13 12  1  0  0  0  0
 15 16  1  6  0  0  0
 15 19  1  0  0  0  0
 15 17  1  0  0  0  0
 17 18  1  6  0  0  0
 17  2  1  0  0  0  0
 19 20  1  0  0  0  0
 20 22  2  0  0  0  0
 20 21  1  0  0  0  0
 22  4  1  0  0  0  0
 23 24  1  0  0  0  0
 23 22  1  0  0  0  0
 25 23  2  0  0  0  0
 26 25  1  0  0  0  0
 27 25  1  0  0  0  0
 27 19  2  0  0  0  0
 28 27  1  0  0  0  0
 29 32  1  0  0  0  0
 29 31  1  0  0  0  0
 30 29  1  0  0  0  0
M  END
