9
 OpenBabel05122313113D

 46 49  0  0  0  0  0  0  0  0999 V2000
   -5.5800   -1.2618    1.1749 Br  0  0  0  0  0  0  0  0  0  0  0  0
    0.4476    1.6996   -0.6275 N   0  0  0  0  0  0  0  0  0  0  0  0
   -1.6413    0.3851   -0.9236 C   0  0  0  0  0  0  0  0  0  0  0  0
   -1.5850   -0.8038   -0.1460 C   0  0  0  0  0  0  0  0  0  0  0  0
   -2.7868   -1.3184    0.4968 C   0  0  0  0  0  0  0  0  0  0  0  0
    4.9207    1.5656    3.0406 C   0  0  0  0  0  0  0  0  0  0  0  0
    5.6694    1.2575    2.2780 H   0  0  0  0  0  0  0  0  0  0  0  0
    5.1893    2.6073    3.3269 H   0  0  0  0  0  0  0  0  0  0  0  0
    1.7632    1.4416   -0.3616 C   0  0  0  0  0  2  0  0  0  0  0  0
   -4.0791    0.5894   -0.4331 C   0  0  0  0  0  0  0  0  0  0  0  0
    2.1250    2.4099    0.5313 N   0  0  0  0  0  0  0  0  0  0  0  0
   -2.9740    2.3078   -1.8280 C   0  0  0  0  0  0  0  0  0  0  0  0
   -2.0826    2.7168   -2.3228 H   0  0  0  0  0  0  0  0  0  0  0  0
   -0.3747    0.9133   -1.5608 C   0  0  0  0  0  0  0  0  0  0  0  0
    0.2772    0.0959   -1.9209 H   0  0  0  0  0  0  0  0  0  0  0  0
   -0.5976    1.5409   -2.4434 H   0  0  0  0  0  0  0  0  0  0  0  0
   -5.2989    1.3237   -0.5990 C   0  0  0  0  0  0  0  0  0  0  0  0
   -6.2061    0.9343   -0.1176 H   0  0  0  0  0  0  0  0  0  0  0  0
   -4.1688    2.9875   -1.9585 C   0  0  0  0  0  0  0  0  0  0  0  0
   -4.2091    3.9153   -2.5488 H   0  0  0  0  0  0  0  0  0  0  0  0
   -5.3484    2.4884   -1.3368 C   0  0  0  0  0  0  0  0  0  0  0  0
   -6.2994    3.0306   -1.4455 H   0  0  0  0  0  0  0  0  0  0  0  0
   -2.8667    1.0898   -1.0713 C   0  0  0  0  0  0  0  0  0  0  0  0
   -0.3663   -1.5397    0.0341 C   0  0  0  0  0  0  0  0  0  0  0  0
    0.5667   -1.1824   -0.4267 H   0  0  0  0  0  0  0  0  0  0  0  0
    1.0569    3.2427    0.8317 C   0  0  0  0  0  0  0  0  0  0  0  0
    1.1411    4.0781    1.5333 H   0  0  0  0  0  0  0  0  0  0  0  0
    3.5292    1.5548    2.4031 C   0  0  0  0  0  0  0  0  0  0  0  0
    3.2653    0.5204    2.0905 H   0  0  0  0  0  0  0  0  0  0  0  0
    2.7626    1.8649    3.1473 H   0  0  0  0  0  0  0  0  0  0  0  0
   -3.9958   -0.6004    0.3298 C   0  0  0  0  0  0  0  0  0  0  0  0
   -0.0096    2.7941    0.0949 C   0  0  0  0  0  0  0  0  0  0  0  0
   -1.0407    3.1535    0.0283 H   0  0  0  0  0  0  0  0  0  0  0  0
    3.4387    2.4609    1.1738 C   0  0  0  0  0  0  0  0  0  0  0  0
    3.6469    3.5181    1.4371 H   0  0  0  0  0  0  0  0  0  0  0  0
    4.1840    2.1520    0.4131 H   0  0  0  0  0  0  0  0  0  0  0  0
   -0.3173   -2.6985    0.7824 C   0  0  0  0  0  0  0  0  0  0  0  0
    0.6386   -3.2339    0.8848 H   0  0  0  0  0  0  0  0  0  0  0  0
    5.0237    0.6500    4.2606 C   0  0  0  0  0  0  0  0  0  0  0  0
    4.3072    0.9502    5.0534 H   0  0  0  0  0  0  0  0  0  0  0  0
    6.0402    0.6728    4.7011 H   0  0  0  0  0  0  0  0  0  0  0  0
    4.7990   -0.4023    3.9904 H   0  0  0  0  0  0  0  0  0  0  0  0
   -2.6930   -2.5238    1.2662 C   0  0  0  0  0  0  0  0  0  0  0  0
   -3.6044   -2.9068    1.7444 H   0  0  0  0  0  0  0  0  0  0  0  0
   -1.4958   -3.1965    1.4070 C   0  0  0  0  0  0  0  0  0  0  0  0
   -1.4539   -4.1216    2.0012 H   0  0  0  0  0  0  0  0  0  0  0  0
  2  9  1  0  0  0  0
  2 32  1  0  0  0  0
  3  4  1  0  0  0  0
  4 24  2  0  0  0  0
  4  5  1  0  0  0  0
  5 43  2  0  0  0  0
  6  8  1  0  0  0  0
  6 39  1  0  0  0  0
  7  6  1  0  0  0  0
  9 11  1  0  0  0  0
 10 31  2  0  0  0  0
 11 26  1  0  0  0  0
 11 34  1  0  0  0  0
 12 23  1  0  0  0  0
 13 12  1  0  0  0  0
 14  3  1  0  0  0  0
 14  2  1  0  0  0  0
 15 14  1  0  0  0  0
 16 14  1  0  0  0  0
 17 10  1  0  0  0  0
 17 18  1  0  0  0  0
 19 12  2  0  0  0  0
 19 21  1  0  0  0  0
 20 19  1  0  0  0  0
 21 17  2  0  0  0  0
 22 21  1  0  0  0  0
 23  3  2  0  0  0  0
 23 10  1  0  0  0  0
 24 37  1  0  0  0  0
 25 24  1  0  0  0  0
 26 27  1  0  0  0  0
 28  6  1  0  0  0  0
 28 30  1  0  0  0  0
 29 28  1  0  0  0  0
 31  5  1  0  0  0  0
 31  1  1  0  0  0  0
 32 26  2  0  0  0  0
 33 32  1  0  0  0  0
 34 35  1  0  0  0  0
 34 28  1  0  0  0  0
 36 34  1  0  0  0  0
 37 38  1  0  0  0  0
 37 45  2  0  0  0  0
 39 41  1  0  0  0  0
 39 40  1  0  0  0  0
 42 39  1  0  0  0  0
 43 45  1  0  0  0  0
 43 44  1  0  0  0  0
 45 46  1  0  0  0  0
M  END
