7
 OpenBabel05122313113D

 12 12  0  0  1  0  0  0  0  0999 V2000
   -1.1730    2.3881   -0.7238 F   0  0  0  0  0  0  0  0  0  0  0  0
   -3.5025    1.4918   -1.8842 F   0  0  0  0  0  0  0  0  0  0  0  0
   -5.3183    0.2721   -0.2021 F   0  0  0  0  0  0  0  0  0  0  0  0
   -4.6067   -0.5553    2.2462 F   0  0  0  0  0  0  0  0  0  0  0  0
   -2.0131   -0.2151    3.1682 F   0  0  0  0  0  0  0  0  0  0  0  0
   -0.4268    1.5184    1.7483 F   0  0  0  0  0  0  0  0  0  0  0  0
   -1.7431    1.2255   -0.2722 C   0  0  2  0  0  0  0  0  0  0  0  0
   -3.1437    1.0882   -0.6557 C   0  0  0  0  0  0  0  0  0  0  0  0
   -4.0621    0.5278    0.1955 C   0  0  0  0  0  0  0  0  0  0  0  0
   -3.6801    0.0850    1.5160 C   0  0  0  0  0  0  0  0  0  0  0  0
   -2.3860    0.2122    1.9501 C   0  0  0  0  0  0  0  0  0  0  0  0
   -1.3572    0.7517    1.0723 C   0  0  2  0  0  0  0  0  0  0  0  0
  2  8  1  0  0  0  0
  3  9  1  0  0  0  0
  7  1  1  1  0  0  0
  7 12  1  0  0  0  0
  8  7  1  0  0  0  0
  8  9  2  0  0  0  0
  9 10  1  0  0  0  0
 10 11  2  0  0  0  0
 10  4  1  0  0  0  0
 11  5  1  0  0  0  0
 12  6  1  1  0  0  0
 12 11  1  0  0  0  0
M  END
