1
 OpenBabel05122313113D

 24 24  0  0  0  0  0  0  0  0999 V2000
   -1.7282    0.7785   -0.4472 C   0  0  0  0  0  2  0  0  0  0  0  0
   -2.8253    0.0898   -0.8850 N   0  0  0  0  0  0  0  0  0  0  0  0
   -2.7821   -1.2521   -1.4586 C   0  0  0  0  0  0  0  0  0  0  0  0
   -1.8483   -1.3342   -2.0517 H   0  0  0  0  0  0  0  0  0  0  0  0
   -3.6381   -1.3574   -2.1529 H   0  0  0  0  0  0  0  0  0  0  0  0
   -2.8029   -2.3593   -0.4104 C   0  0  0  0  0  0  0  0  0  0  0  0
   -1.9403   -2.2762    0.2806 H   0  0  0  0  0  0  0  0  0  0  0  0
   -2.7618   -3.3432   -0.9172 H   0  0  0  0  0  0  0  0  0  0  0  0
   -3.9882    0.7993   -0.6283 C   0  0  0  0  0  0  0  0  0  0  0  0
   -4.9781    0.4119   -0.8840 H   0  0  0  0  0  0  0  0  0  0  0  0
   -3.6064    1.9706   -0.0263 C   0  0  0  0  0  0  0  0  0  0  0  0
   -4.2066    2.8127    0.3293 H   0  0  0  0  0  0  0  0  0  0  0  0
   -2.2231    1.9361    0.0745 N   0  0  0  0  0  0  0  0  0  0  0  0
   -1.3934    2.9993    0.6844 C   0  0  0  0  0  0  0  0  0  0  0  0
   -0.3529    2.6446    0.5256 H   0  0  0  0  0  0  0  0  0  0  0  0
   -1.5854    4.3257   -0.0511 C   0  0  0  0  0  0  0  0  0  0  0  0
   -1.3875    4.2160   -1.1352 H   0  0  0  0  0  0  0  0  0  0  0  0
   -0.8874    5.0831    0.3553 H   0  0  0  0  0  0  0  0  0  0  0  0
   -2.6130    4.7217    0.0789 H   0  0  0  0  0  0  0  0  0  0  0  0
   -1.6607    3.0883    2.1878 C   0  0  0  0  0  0  0  0  0  0  0  0
   -2.6980    3.4191    2.3979 H   0  0  0  0  0  0  0  0  0  0  0  0
   -0.9754    3.8260    2.6489 H   0  0  0  0  0  0  0  0  0  0  0  0
   -1.5006    2.1088    2.6795 H   0  0  0  0  0  0  0  0  0  0  0  0
   -4.2999   -2.3182    0.5802 Cl  0  0  0  0  0  0  0  0  0  0  0  0
  1 13  1  0  0  0  0
  2  9  1  0  0  0  0
  2  1  1  0  0  0  0
  3  2  1  0  0  0  0
  3  6  1  0  0  0  0
  4  3  1  0  0  0  0
  5  3  1  0  0  0  0
  6  7  1  0  0  0  0
  6 24  1  0  0  0  0
  8  6  1  0  0  0  0
  9 11  2  0  0  0  0
 10  9  1  0  0  0  0
 11 13  1  0  0  0  0
 11 12  1  0  0  0  0
 13 14  1  0  0  0  0
 14 20  1  0  0  0  0
 15 14  1  0  0  0  0
 16 19  1  0  0  0  0
 16 18  1  0  0  0  0
 16 14  1  0  0  0  0
 17 16  1  0  0  0  0
 20 21  1  0  0  0  0
 20 22  1  0  0  0  0
 20 23  1  0  0  0  0
M  END
