4
 OpenBabel05122313113D

 34 33  0  0  0  0  0  0  0  0999 V2000
   -1.6651   -1.0231    1.2999 P   0  0  0  0  0  2  0  0  0  0  0  0
   -2.9097    1.3521    0.5318 N   0  0  0  0  0  0  0  0  0  0  0  0
   -3.9798   -0.5929   -0.3183 N   0  0  0  0  0  0  0  0  0  0  0  0
   -1.0647   -2.2560    0.1672 C   0  0  0  0  0  2  0  0  0  0  0  0
   -2.9652    0.0147    0.3479 C   0  0  0  0  0  3  0  0  0  0  0  0
   -4.0517    2.2812    0.4195 C   0  0  0  0  0  0  0  0  0  0  0  0
   -3.9382    3.3129   -0.7024 C   0  0  0  0  0  0  0  0  0  0  0  0
   -1.7077    1.9869    1.1158 C   0  0  0  0  0  0  0  0  0  0  0  0
   -1.7784    2.1745    2.6289 C   0  0  0  0  0  0  0  0  0  0  0  0
   -4.7733    0.0107   -1.4083 C   0  0  0  0  0  0  0  0  0  0  0  0
   -6.2783    0.0983   -1.1633 C   0  0  0  0  0  0  0  0  0  0  0  0
   -4.2911   -2.0203   -0.0749 C   0  0  0  0  0  0  0  0  0  0  0  0
   -4.9806   -2.2641    1.2635 C   0  0  0  0  0  0  0  0  0  0  0  0
   -1.4099   -3.2673   -0.1053 H   0  0  0  0  0  0  0  0  0  0  0  0
   -4.1103    2.8123    1.3927 H   0  0  0  0  0  0  0  0  0  0  0  0
   -4.9818    1.6942    0.3459 H   0  0  0  0  0  0  0  0  0  0  0  0
   -3.0527    3.9650   -0.5730 H   0  0  0  0  0  0  0  0  0  0  0  0
   -4.8335    3.9650   -0.6967 H   0  0  0  0  0  0  0  0  0  0  0  0
   -3.8574    2.8474   -1.7047 H   0  0  0  0  0  0  0  0  0  0  0  0
   -1.5756    2.9587    0.5993 H   0  0  0  0  0  0  0  0  0  0  0  0
   -0.8371    1.3679    0.8486 H   0  0  0  0  0  0  0  0  0  0  0  0
   -1.8744    1.1977    3.1432 H   0  0  0  0  0  0  0  0  0  0  0  0
   -2.6193    2.8239    2.9449 H   0  0  0  0  0  0  0  0  0  0  0  0
   -0.8380    2.6429    2.9797 H   0  0  0  0  0  0  0  0  0  0  0  0
   -4.5922   -0.6264   -2.3018 H   0  0  0  0  0  0  0  0  0  0  0  0
   -4.3431    0.9952   -1.6539 H   0  0  0  0  0  0  0  0  0  0  0  0
   -6.7284   -0.9009   -1.0033 H   0  0  0  0  0  0  0  0  0  0  0  0
   -6.7702    0.5415   -2.0515 H   0  0  0  0  0  0  0  0  0  0  0  0
   -6.5345    0.7236   -0.2848 H   0  0  0  0  0  0  0  0  0  0  0  0
   -3.3626   -2.6147   -0.1539 H   0  0  0  0  0  0  0  0  0  0  0  0
   -4.9382   -2.3464   -0.9116 H   0  0  0  0  0  0  0  0  0  0  0  0
   -4.3195   -1.9793    2.1066 H   0  0  0  0  0  0  0  0  0  0  0  0
   -5.2224   -3.3397    1.3735 H   0  0  0  0  0  0  0  0  0  0  0  0
   -5.9239   -1.6889    1.3451 H   0  0  0  0  0  0  0  0  0  0  0  0
  2  8  1  0  0  0  0
  3 12  1  0  0  0  0
  3  5  1  0  0  0  0
  4  1  1  0  0  0  0
  5  2  1  0  0  0  0
  5  1  1  0  0  0  0
  6  2  1  0  0  0  0
  6 15  1  0  0  0  0
  7 18  1  0  0  0  0
  7 17  1  0  0  0  0
  7  6  1  0  0  0  0
  8  9  1  0  0  0  0
  9 23  1  0  0  0  0
  9 24  1  0  0  0  0
  9 22  1  0  0  0  0
 10 11  1  0  0  0  0
 10  3  1  0  0  0  0
 11 27  1  0  0  0  0
 11 29  1  0  0  0  0
 12 13  1  0  0  0  0
 13 34  1  0  0  0  0
 13 33  1  0  0  0  0
 13 32  1  0  0  0  0
 14  4  1  0  0  0  0
 16  6  1  0  0  0  0
 19  7  1  0  0  0  0
 20  8  1  0  0  0  0
 21  8  1  0  0  0  0
 25 10  1  0  0  0  0
 26 10  1  0  0  0  0
 28 11  1  0  0  0  0
 30 12  1  0  0  0  0
 31 12  1  0  0  0  0
M  END
