5
 OpenBabel05122313113D

 49 51  0  0  0  0  0  0  0  0999 V2000
    2.2720   -2.3046   -2.5133 F   0  0  0  0  0  0  0  0  0  0  0  0
    2.3821   -2.4969    2.1914 F   0  0  0  0  0  0  0  0  0  0  0  0
    0.8455   -2.4313   -0.1128 N   0  0  0  0  0  0  0  0  0  0  0  0
   -1.2975   -1.9576   -0.1104 N   0  0  0  0  0  0  0  0  0  0  0  0
   -0.0586   -1.3847   -0.0513 C   0  0  0  0  0  2  0  0  0  0  0  0
    0.2198   -3.7182   -0.4349 C   0  0  0  0  0  0  0  0  0  0  0  0
    0.6415   -4.5314    0.1883 H   0  0  0  0  0  0  0  0  0  0  0  0
    0.3857   -3.9696   -1.5061 H   0  0  0  0  0  0  0  0  0  0  0  0
   -1.2537   -3.4285   -0.1252 C   0  0  0  0  0  0  0  0  0  0  0  0
   -1.9476   -3.8299   -0.8904 H   0  0  0  0  0  0  0  0  0  0  0  0
   -1.5661   -3.8288    0.8656 H   0  0  0  0  0  0  0  0  0  0  0  0
    2.2472   -2.2537   -0.1529 C   0  0  0  0  0  0  0  0  0  0  0  0
    2.9518   -2.1483   -1.3724 C   0  0  0  0  0  0  0  0  0  0  0  0
    4.3306   -1.9169   -1.4108 C   0  0  0  0  0  0  0  0  0  0  0  0
    4.8277   -1.8151   -2.3850 H   0  0  0  0  0  0  0  0  0  0  0  0
    5.0341   -1.8323   -0.1997 C   0  0  0  0  0  0  0  0  0  0  0  0
    6.1178   -1.6443   -0.2167 H   0  0  0  0  0  0  0  0  0  0  0  0
    4.3847   -2.0094    1.0312 C   0  0  0  0  0  0  0  0  0  0  0  0
    4.9254   -1.9799    1.9869 H   0  0  0  0  0  0  0  0  0  0  0  0
    3.0058   -2.2451    1.0390 C   0  0  0  0  0  0  0  0  0  0  0  0
   -2.5571   -1.3126    0.0823 C   0  0  0  0  0  0  0  0  0  0  0  0
   -3.3011   -0.9164   -1.0577 C   0  0  0  0  0  0  0  0  0  0  0  0
   -4.5611   -0.3251   -0.8465 C   0  0  0  0  0  0  0  0  0  0  0  0
   -5.1567   -0.0018   -1.7139 H   0  0  0  0  0  0  0  0  0  0  0  0
   -5.0589   -0.1303    0.4482 C   0  0  0  0  0  0  0  0  0  0  0  0
   -6.0466    0.3339    0.5931 H   0  0  0  0  0  0  0  0  0  0  0  0
   -4.2980   -0.5141    1.5601 C   0  0  0  0  0  0  0  0  0  0  0  0
   -4.6889   -0.3381    2.5740 H   0  0  0  0  0  0  0  0  0  0  0  0
   -3.0316   -1.1086    1.4040 C   0  0  0  0  0  0  0  0  0  0  0  0
   -2.7479   -1.0701   -2.4668 C   0  0  0  0  0  0  0  0  0  0  0  0
   -1.7120   -1.4529   -2.3741 H   0  0  0  0  0  0  0  0  0  0  0  0
   -3.5672   -2.0853   -3.2819 C   0  0  0  0  0  0  0  0  0  0  0  0
   -3.6088   -3.0750   -2.7820 H   0  0  0  0  0  0  0  0  0  0  0  0
   -3.1231   -2.2277   -4.2883 H   0  0  0  0  0  0  0  0  0  0  0  0
   -4.6135   -1.7417   -3.4228 H   0  0  0  0  0  0  0  0  0  0  0  0
   -2.6514    0.2882   -3.1804 C   0  0  0  0  0  0  0  0  0  0  0  0
   -3.6514    0.7466   -3.3296 H   0  0  0  0  0  0  0  0  0  0  0  0
   -2.1816    0.1647   -4.1767 H   0  0  0  0  0  0  0  0  0  0  0  0
   -2.0192    0.9905   -2.6031 H   0  0  0  0  0  0  0  0  0  0  0  0
   -2.1974   -1.4639    2.6283 C   0  0  0  0  0  0  0  0  0  0  0  0
   -1.2066   -1.8141    2.2761 H   0  0  0  0  0  0  0  0  0  0  0  0
   -2.8478   -2.5997    3.4376 C   0  0  0  0  0  0  0  0  0  0  0  0
   -3.8333   -2.2911    3.8448 H   0  0  0  0  0  0  0  0  0  0  0  0
   -2.2051   -2.8849    4.2954 H   0  0  0  0  0  0  0  0  0  0  0  0
   -3.0154   -3.5041    2.8173 H   0  0  0  0  0  0  0  0  0  0  0  0
   -1.9341   -0.2270    3.5033 C   0  0  0  0  0  0  0  0  0  0  0  0
   -1.4254    0.5660    2.9220 H   0  0  0  0  0  0  0  0  0  0  0  0
   -1.2684   -0.4919    4.3490 H   0  0  0  0  0  0  0  0  0  0  0  0
   -2.8749    0.1837    3.9253 H   0  0  0  0  0  0  0  0  0  0  0  0
  1 13  1  0  0  0  0
  3  5  1  0  0  0  0
  4  5  1  0  0  0  0
  4 21  1  0  0  0  0
  6  9  1  0  0  0  0
  6  3  1  0  0  0  0
  6  7  1  0  0  0  0
  8  6  1  0  0  0  0
  9  4  1  0  0  0  0
  9 11  1  0  0  0  0
 10  9  1  0  0  0  0
 12  3  1  0  0  0  0
 12 20  1  0  0  0  0
 13 12  2  0  0  0  0
 14 13  1  0  0  0  0
 14 16  2  0  0  0  0
 15 14  1  0  0  0  0
 16 18  1  0  0  0  0
 17 16  1  0  0  0  0
 18 20  2  0  0  0  0
 18 19  1  0  0  0  0
 20  2  1  0  0  0  0
 21 29  1  0  0  0  0
 22 23  1  0  0  0  0
 22 21  2  0  0  0  0
 23 25  2  0  0  0  0
 24 23  1  0  0  0  0
 25 26  1  0  0  0  0
 25 27  1  0  0  0  0
 27 28  1  0  0  0  0
 29 27  2  0  0  0  0
 29 40  1  0  0  0  0
 30 31  1  0  0  0  0
 30 22  1  0  0  0  0
 32 33  1  0  0  0  0
 32 30  1  0  0  0  0
 34 32  1  0  0  0  0
 35 32  1  0  0  0  0
 36 39  1  0  0  0  0
 36 30  1  0  0  0  0
 37 36  1  0  0  0  0
 38 36  1  0  0  0  0
 40 42  1  0  0  0  0
 40 46  1  0  0  0  0
 41 40  1  0  0  0  0
 42 43  1  0  0  0  0
 42 44  1  0  0  0  0
 45 42  1  0  0  0  0
 46 49  1  0  0  0  0
 46 48  1  0  0  0  0
 47 46  1  0  0  0  0
M  END
