3
 OpenBabel05122313113D

 27 27  0  0  0  0  0  0  0  0999 V2000
   -6.2043   -2.3458   -0.2573 O   0  0  0  0  0  0  0  0  0  0  0  0
   -2.4910    1.7747   -0.1731 O   0  0  0  0  0  0  0  0  0  0  0  0
   -1.5300   -0.6986    0.0551 C   0  0  0  0  0  2  0  0  0  0  0  0
   -1.1974   -1.7469    0.1934 H   0  0  0  0  0  0  0  0  0  0  0  0
   -2.9640   -0.5113   -0.0684 C   0  0  0  0  0  0  0  0  0  0  0  0
   -3.8737   -1.5979   -0.0903 C   0  0  0  0  0  0  0  0  0  0  0  0
   -3.4649   -2.6135    0.0007 H   0  0  0  0  0  0  0  0  0  0  0  0
   -5.2525   -1.3686   -0.2275 C   0  0  0  0  0  0  0  0  0  0  0  0
   -5.7251   -0.0420   -0.3458 C   0  0  0  0  0  0  0  0  0  0  0  0
   -6.8077    0.1157   -0.4542 H   0  0  0  0  0  0  0  0  0  0  0  0
   -4.8424    1.0452   -0.3249 C   0  0  0  0  0  0  0  0  0  0  0  0
   -5.2407    2.0636   -0.4199 H   0  0  0  0  0  0  0  0  0  0  0  0
   -3.4661    0.8123   -0.1861 C   0  0  0  0  0  0  0  0  0  0  0  0
   -5.7795   -3.6881   -0.1390 C   0  0  0  0  0  0  0  0  0  0  0  0
   -6.6911   -4.3125   -0.1843 H   0  0  0  0  0  0  0  0  0  0  0  0
   -5.0980   -3.9842   -0.9690 H   0  0  0  0  0  0  0  0  0  0  0  0
   -5.2604   -3.8772    0.8282 H   0  0  0  0  0  0  0  0  0  0  0  0
   -2.8206    3.1903   -0.0195 C   0  0  0  0  0  0  0  0  0  0  0  0
   -3.6127    3.4103   -0.7692 H   0  0  0  0  0  0  0  0  0  0  0  0
   -3.3142    3.4646    1.3965 C   0  0  0  0  0  0  0  0  0  0  0  0
   -3.5707    4.5376    1.5023 H   0  0  0  0  0  0  0  0  0  0  0  0
   -4.2147    2.8698    1.6433 H   0  0  0  0  0  0  0  0  0  0  0  0
   -2.5161    3.2054    2.1196 H   0  0  0  0  0  0  0  0  0  0  0  0
   -1.5632    3.9669   -0.3779 C   0  0  0  0  0  0  0  0  0  0  0  0
   -1.7850    5.0521   -0.3725 H   0  0  0  0  0  0  0  0  0  0  0  0
   -0.7706    3.7695    0.3725 H   0  0  0  0  0  0  0  0  0  0  0  0
   -1.1907    3.6751   -1.3785 H   0  0  0  0  0  0  0  0  0  0  0  0
  1  8  1  0  0  0  0
  1 14  1  0  0  0  0
  2 18  1  0  0  0  0
  3  4  1  0  0  0  0
  5  3  1  0  0  0  0
  6  5  1  0  0  0  0
  6  7  1  0  0  0  0
  8  6  2  0  0  0  0
  9 11  2  0  0  0  0
  9  8  1  0  0  0  0
 10  9  1  0  0  0  0
 11 13  1  0  0  0  0
 12 11  1  0  0  0  0
 13  2  1  0  0  0  0
 13  5  2  0  0  0  0
 14 17  1  0  0  0  0
 15 14  1  0  0  0  0
 16 14  1  0  0  0  0
 18 20  1  0  0  0  0
 19 18  1  0  0  0  0
 20 21  1  0  0  0  0
 20 22  1  0  0  0  0
 20 23  1  0  0  0  0
 24 25  1  0  0  0  0
 24 18  1  0  0  0  0
 24 26  1  0  0  0  0
 27 24  1  0  0  0  0
M  END
