1
 OpenBabel05122313113D

 30 31  0  0  1  0  0  0  0  0999 V2000
    2.5561    0.7914   -0.3755 C   0  0  0  0  0  3  0  0  0  0  0  0
   -2.5466    0.8970   -0.5272 C   0  0  0  0  0  0  0  0  0  0  0  0
   -1.1689    1.0260   -1.0604 C   0  0  0  0  0  3  0  0  0  0  0  0
   -4.1955    1.0571    1.2772 C   0  0  0  0  0  0  0  0  0  0  0  0
   -4.4276    1.3011    2.3255 H   0  0  0  0  0  0  0  0  0  0  0  0
   -2.8837    1.2089    0.8127 C   0  0  0  0  0  0  0  0  0  0  0  0
   -2.1023    1.5424    1.5107 H   0  0  0  0  0  0  0  0  0  0  0  0
   -3.5823    0.4420   -1.3768 C   0  0  0  0  0  0  0  0  0  0  0  0
   -3.3516    0.2240   -2.4315 H   0  0  0  0  0  0  0  0  0  0  0  0
   -5.2097    0.5840    0.4254 C   0  0  0  0  0  0  0  0  0  0  0  0
   -6.2370    0.4571    0.7987 H   0  0  0  0  0  0  0  0  0  0  0  0
   -4.8953    0.2811   -0.9075 C   0  0  0  0  0  0  0  0  0  0  0  0
   -5.6785   -0.0781   -1.5929 H   0  0  0  0  0  0  0  0  0  0  0  0
    3.1510    1.8858    0.5021 C   0  0  0  0  0  0  0  0  0  0  0  0
    3.3496    1.5040    1.5256 H   0  0  0  0  0  0  0  0  0  0  0  0
    4.1501    2.1402    0.0734 H   0  0  0  0  0  0  0  0  0  0  0  0
    1.6899    1.1300   -1.4700 C   0  0  0  0  0  3  0  0  0  0  0  0
    2.3062    3.1664    0.5684 C   0  0  0  0  0  0  0  0  0  0  0  0
    1.4664    3.0256    1.2789 H   0  0  0  0  0  0  0  0  0  0  0  0
    2.9204    3.9911    0.9862 H   0  0  0  0  0  0  0  0  0  0  0  0
    0.9358    2.4568   -1.4664 C   0  0  2  0  0  0  0  0  0  0  0  0
    0.6461    2.7721   -2.4934 H   0  0  0  0  0  0  0  0  0  0  0  0
    1.7623    3.5737   -0.8086 C   0  0  0  0  0  0  0  0  0  0  0  0
    2.6076    3.8267   -1.4857 H   0  0  0  0  0  0  0  0  0  0  0  0
    1.1392    4.4895   -0.7188 H   0  0  0  0  0  0  0  0  0  0  0  0
   -0.2791    2.0597   -0.6506 C   0  0  0  0  0  3  0  0  0  0  0  0
    1.7439    0.5554   -2.4106 H   0  0  0  0  0  0  0  0  0  0  0  0
   -1.0502    0.6761   -2.1044 H   0  0  0  0  0  0  0  0  0  0  0  0
    3.2651   -0.0291   -0.5768 H   0  0  0  0  0  0  0  0  0  0  0  0
   -0.5887    2.7114    0.1836 H   0  0  0  0  0  0  0  0  0  0  0  0
  1 14  1  0  0  0  0
  2  6  1  0  0  0  0
  3 26  1  0  0  0  0
  3  2  1  0  0  0  0
  4  5  1  0  0  0  0
  6  4  2  0  0  0  0
  6  7  1  0  0  0  0
  8 12  1  0  0  0  0
  8  2  2  0  0  0  0
  9  8  1  0  0  0  0
 10 11  1  0  0  0  0
 10  4  1  0  0  0  0
 12 10  2  0  0  0  0
 13 12  1  0  0  0  0
 14 18  1  0  0  0  0
 14 15  1  0  0  0  0
 16 14  1  0  0  0  0
 17 21  1  0  0  0  0
 17  1  1  0  0  0  0
 18 20  1  0  0  0  0
 18 19  1  0  0  0  0
 21 22  1  6  0  0  0
 21 23  1  0  0  0  0
 21 26  1  0  0  0  0
 23 25  1  0  0  0  0
 23 18  1  0  0  0  0
 24 23  1  0  0  0  0
 26 30  1  0  0  0  0
 27 17  1  0  0  0  0
 28  3  1  0  0  0  0
 29  1  1  0  0  0  0
M  END
