2
 OpenBabel05122313113D

 13 13  0  0  0  0  0  0  0  0999 V2000
   -3.1185   -1.6589    1.1035 S   0  0  0  0  0  0  0  0  0  0  0  0
   -1.6871   -0.8272    0.7235 C   0  0  0  0  0  1  0  0  0  0  0  0
   -4.4145   -0.6929    0.3041 C   0  0  0  0  0  0  0  0  0  0  0  0
   -4.4496    0.7095    0.4044 C   0  0  0  0  0  0  0  0  0  0  0  0
   -3.6656    1.2420    0.9610 H   0  0  0  0  0  0  0  0  0  0  0  0
   -5.4866    1.4148   -0.2215 C   0  0  0  0  0  0  0  0  0  0  0  0
   -5.5082    2.5130   -0.1555 H   0  0  0  0  0  0  0  0  0  0  0  0
   -6.4933    0.7294   -0.9215 C   0  0  0  0  0  0  0  0  0  0  0  0
   -7.3061    1.2896   -1.4074 H   0  0  0  0  0  0  0  0  0  0  0  0
   -6.4592   -0.6716   -1.0016 C   0  0  0  0  0  0  0  0  0  0  0  0
   -7.2434   -1.2142   -1.5511 H   0  0  0  0  0  0  0  0  0  0  0  0
   -5.4165   -1.3893   -0.3957 C   0  0  0  0  0  0  0  0  0  0  0  0
   -5.3714   -2.4860   -0.4726 H   0  0  0  0  0  0  0  0  0  0  0  0
  2  1  1  0  0  0  0
  3  4  1  0  0  0  0
  3  1  1  0  0  0  0
  4  5  1  0  0  0  0
  6  7  1  0  0  0  0
  6  4  2  0  0  0  0
  8  6  1  0  0  0  0
  9  8  1  0  0  0  0
 10  8  2  0  0  0  0
 10 12  1  0  0  0  0
 11 10  1  0  0  0  0
 12  3  2  0  0  0  0
 13 12  1  0  0  0  0
M  END
