10
 OpenBabel05122313113D

 26 27  0  0  1  0  0  0  0  0999 V2000
    3.2192    2.5207   -0.8036 O   0  0  0  0  0  0  0  0  0  0  0  0
    2.8316   -2.1344   -1.0302 O   0  0  0  0  0  0  0  0  0  0  0  0
    3.0911    0.2142   -1.0287 N   0  0  0  0  0  0  0  0  0  0  0  0
    3.7643   -3.1855    2.3542 N   0  0  0  0  0  0  0  0  0  0  0  0
    2.9954    1.2845   -0.3225 C   0  0  0  0  0  0  0  0  0  0  0  0
    2.6621    1.1775    1.1354 C   0  0  1  0  0  0  0  0  0  0  0  0
    2.6244    2.1720    1.6202 H   0  0  0  0  0  0  0  0  0  0  0  0
    1.3774    0.3463    1.2796 C   0  0  0  0  0  3  0  0  0  0  0  0
    1.0934    0.2541    2.3444 H   0  0  0  0  0  0  0  0  0  0  0  0
    1.4602   -0.8878    0.5037 C   0  0  0  0  0  3  0  0  0  0  0  0
    1.2126   -1.8440    1.0007 H   0  0  0  0  0  0  0  0  0  0  0  0
    2.7990   -0.9670   -0.2415 C   0  0  1  0  0  0  0  0  0  0  0  0
    3.8036    0.3058    1.7462 C   0  0  0  0  0  0  0  0  0  0  0  0
    3.5492    0.0656    2.7965 H   0  0  0  0  0  0  0  0  0  0  0  0
    4.7632    0.8598    1.7503 H   0  0  0  0  0  0  0  0  0  0  0  0
    3.9310   -0.9994    0.9005 C   0  0  1  0  0  0  0  0  0  0  0  0
    4.9092   -1.0103    0.3768 H   0  0  0  0  0  0  0  0  0  0  0  0
    3.8460   -2.2140    1.7025 C   0  0  0  0  0  0  0  0  0  0  0  0
    3.9914   -2.3297   -1.8209 C   0  0  0  0  0  0  0  0  0  0  0  0
    4.2568   -1.4075   -2.3800 H   0  0  0  0  0  0  0  0  0  0  0  0
    3.7557   -3.1403   -2.5370 H   0  0  0  0  0  0  0  0  0  0  0  0
    4.8657   -2.6535   -1.2095 H   0  0  0  0  0  0  0  0  0  0  0  0
    3.5701    2.5971   -2.1949 C   0  0  0  0  0  0  0  0  0  0  0  0
    4.4991    2.0234   -2.3900 H   0  0  0  0  0  0  0  0  0  0  0  0
    3.7259    3.6702   -2.4074 H   0  0  0  0  0  0  0  0  0  0  0  0
    2.7505    2.1842   -2.8142 H   0  0  0  0  0  0  0  0  0  0  0  0
  1  5  1  0  0  0  0
  3  5  2  0  0  0  0
  3 12  1  0  0  0  0
  5  6  1  0  0  0  0
  6  8  1  0  0  0  0
  6  7  1  1  0  0  0
  6 13  1  0  0  0  0
  8  9  1  0  0  0  0
 10 11  1  0  0  0  0
 10  8  1  0  0  0  0
 12  2  1  6  0  0  0
 12 10  1  0  0  0  0
 12 16  1  0  0  0  0
 13 15  1  0  0  0  0
 13 14  1  0  0  0  0
 16 17  1  6  0  0  0
 16 18  1  0  0  0  0
 16 13  1  0  0  0  0
 18  4  3  0  0  0  0
 19 22  1  0  0  0  0
 19  2  1  0  0  0  0
 20 19  1  0  0  0  0
 21 19  1  0  0  0  0
 23  1  1  0  0  0  0
 24 23  1  0  0  0  0
 25 23  1  0  0  0  0
 26 23  1  0  0  0  0
M  END
