1
 OpenBabel05122313113D

 16 15  0  0  0  0  0  0  0  0999 V2000
   -1.6687    0.0284    0.5159 C   0  0  0  0  0  1  0  0  0  0  0  0
   -2.6438    0.7440    1.0576 C   0  0  0  0  0  3  0  0  0  0  0  0
   -4.1768    1.1713    0.0431 Si  0  0  0  0  0  0  0  0  0  0  0  0
   -4.2300    3.0390   -0.2661 C   0  0  0  0  0  0  0  0  0  0  0  0
   -4.1404    0.2040   -1.5754 C   0  0  0  0  0  0  0  0  0  0  0  0
   -5.7009    0.6791    1.0627 C   0  0  0  0  0  0  0  0  0  0  0  0
   -2.5888    1.0650    2.1157 H   0  0  0  0  0  0  0  0  0  0  0  0
   -3.3247    3.3680   -0.8140 H   0  0  0  0  0  0  0  0  0  0  0  0
   -4.2644    3.5972    0.6921 H   0  0  0  0  0  0  0  0  0  0  0  0
   -5.1250    3.3210   -0.8593 H   0  0  0  0  0  0  0  0  0  0  0  0
   -4.2559   -0.8811   -1.3757 H   0  0  0  0  0  0  0  0  0  0  0  0
   -3.1753    0.3271   -2.1079 H   0  0  0  0  0  0  0  0  0  0  0  0
   -4.9663    0.5204   -2.2451 H   0  0  0  0  0  0  0  0  0  0  0  0
   -5.7261    1.2158    2.0336 H   0  0  0  0  0  0  0  0  0  0  0  0
   -5.6999   -0.4097    1.2755 H   0  0  0  0  0  0  0  0  0  0  0  0
   -6.6375    0.9212    0.5179 H   0  0  0  0  0  0  0  0  0  0  0  0
  1  2  1  0  0  0  0
  2  7  1  0  0  0  0
  3  2  1  0  0  0  0
  3  6  1  0  0  0  0
  4  3  1  0  0  0  0
  4  9  1  0  0  0  0
  5 11  1  0  0  0  0
  5  3  1  0  0  0  0
  6 15  1  0  0  0  0
  6 14  1  0  0  0  0
  8  4  1  0  0  0  0
 10  4  1  0  0  0  0
 12  5  1  0  0  0  0
 13  5  1  0  0  0  0
 16  6  1  0  0  0  0
M  END
