3
 OpenBabel05122313113D

  6  5  0  0  0  0  0  0  0  0999 V2000
   -2.9400    3.0821    0.0645 Cl  0  0  0  0  0  0  0  0  0  0  0  0
   -0.7317    1.9198    1.6930 O   0  0  0  0  0  0  0  0  0  0  0  0
   -0.7550    1.4470    0.5743 C   0  0  0  0  0  3  0  0  0  0  0  0
   -1.5524    2.1210   -0.5514 C   0  0  0  0  0  0  0  0  0  0  0  0
   -1.9059    1.3951   -1.3023 H   0  0  0  0  0  0  0  0  0  0  0  0
   -0.8592    2.8025   -1.0847 H   0  0  0  0  0  0  0  0  0  0  0  0
  3  2  2  0  0  0  0
  4  1  1  0  0  0  0
  4  3  1  0  0  0  0
  5  4  1  0  0  0  0
  6  4  1  0  0  0  0
M  END
