2
 OpenBabel05122313113D

 32 33  0  0  0  0  0  0  0  0999 V2000
   -0.1493    0.4592   -1.0728 C   0  0  0  0  0  0  0  0  0  0  0  0
    0.5743    1.6563   -1.3524 C   0  0  0  0  0  3  0  0  0  0  0  0
    0.7113    2.3791   -0.1329 C   0  0  0  0  0  0  0  0  0  0  0  0
    0.0807    1.6193    0.8951 C   0  0  0  0  0  0  0  0  0  0  0  0
   -0.4712    0.4325    0.3190 C   0  0  0  0  0  0  0  0  0  0  0  0
   -1.3939   -0.5881    0.9859 C   0  0  0  0  0  0  0  0  0  0  0  0
   -1.4696   -0.3516    2.5105 C   0  0  0  0  0  0  0  0  0  0  0  0
   -0.8782   -2.0180    0.7340 C   0  0  0  0  0  0  0  0  0  0  0  0
   -2.8078   -0.3781    0.3993 C   0  0  0  0  0  0  0  0  0  0  0  0
   -3.6281   -1.4404   -0.0201 C   0  0  0  0  0  0  0  0  0  0  0  0
   -4.9248   -1.2081   -0.5098 C   0  0  0  0  0  0  0  0  0  0  0  0
   -5.4530    0.0911   -0.6008 C   0  0  0  0  0  0  0  0  0  0  0  0
   -4.6280    1.1572   -0.1815 C   0  0  0  0  0  0  0  0  0  0  0  0
   -3.3374    0.9279    0.3042 C   0  0  0  0  0  0  0  0  0  0  0  0
   -6.8412    0.3485   -1.1304 C   0  0  0  0  0  0  0  0  0  0  0  0
   -0.4565   -0.2914   -1.8109 H   0  0  0  0  0  0  0  0  0  0  0  0
    0.9560    1.9662   -2.3335 H   0  0  0  0  0  0  0  0  0  0  0  0
    1.2122    3.3447   -0.0070 H   0  0  0  0  0  0  0  0  0  0  0  0
    0.0228    1.9033    1.9517 H   0  0  0  0  0  0  0  0  0  0  0  0
   -2.1544   -1.0908    2.9709 H   0  0  0  0  0  0  0  0  0  0  0  0
   -0.4717   -0.4556    2.9793 H   0  0  0  0  0  0  0  0  0  0  0  0
   -1.8649    0.6559    2.7442 H   0  0  0  0  0  0  0  0  0  0  0  0
   -1.5023   -2.7683    1.2583 H   0  0  0  0  0  0  0  0  0  0  0  0
    0.1560   -2.1152    1.1150 H   0  0  0  0  0  0  0  0  0  0  0  0
   -0.8768   -2.2710   -0.3443 H   0  0  0  0  0  0  0  0  0  0  0  0
   -3.2656   -2.4764    0.0309 H   0  0  0  0  0  0  0  0  0  0  0  0
   -5.5401   -2.0642   -0.8306 H   0  0  0  0  0  0  0  0  0  0  0  0
   -5.0062    2.1906   -0.2434 H   0  0  0  0  0  0  0  0  0  0  0  0
   -2.7159    1.7846    0.6078 H   0  0  0  0  0  0  0  0  0  0  0  0
   -7.4639    0.8892   -0.3872 H   0  0  0  0  0  0  0  0  0  0  0  0
   -7.3622   -0.5942   -1.3871 H   0  0  0  0  0  0  0  0  0  0  0  0
   -6.8148    0.9798   -2.0435 H   0  0  0  0  0  0  0  0  0  0  0  0
  1  5  2  0  0  0  0
  2  1  1  0  0  0  0
  2  3  1  0  0  0  0
  3 18  1  0  0  0  0
  3  4  2  0  0  0  0
  4 19  1  0  0  0  0
  5  4  1  0  0  0  0
  5  6  1  0  0  0  0
  6  7  1  0  0  0  0
  7 22  1  0  0  0  0
  7 20  1  0  0  0  0
  7 21  1  0  0  0  0
  8  6  1  0  0  0  0
  8 24  1  0  0  0  0
  8 23  1  0  0  0  0
  9  6  1  0  0  0  0
 10 26  1  0  0  0  0
 10  9  2  0  0  0  0
 11 10  1  0  0  0  0
 12 11  2  0  0  0  0
 12 13  1  0  0  0  0
 13 14  2  0  0  0  0
 14  9  1  0  0  0  0
 14 29  1  0  0  0  0
 15 12  1  0  0  0  0
 15 30  1  0  0  0  0
 16  1  1  0  0  0  0
 17  2  1  0  0  0  0
 25  8  1  0  0  0  0
 27 11  1  0  0  0  0
 28 13  1  0  0  0  0
 31 15  1  0  0  0  0
 32 15  1  0  0  0  0
M  END
