7
 OpenBabel05122313113D

 30 31  0  0  0  0  0  0  0  0999 V2000
   -2.1643    0.4633    1.2011 Se  0  0  0  0  0  1  0  0  0  0  0  0
    2.1068    0.4456   -1.3471 Se  0  0  0  0  0  1  0  0  0  0  0  0
   -1.2323   -1.4203   -1.1739 C   0  0  0  0  0  3  0  0  0  0  0  0
   -1.2689   -1.4104   -2.2797 H   0  0  0  0  0  0  0  0  0  0  0  0
    0.0090   -1.8959   -0.6323 C   0  0  0  0  0  3  0  0  0  0  0  0
    0.8381   -2.2386   -1.2778 H   0  0  0  0  0  0  0  0  0  0  0  0
    0.1396   -1.8057    0.8099 C   0  0  0  0  0  3  0  0  0  0  0  0
   -0.6512   -2.1170    1.5156 H   0  0  0  0  0  0  0  0  0  0  0  0
    1.3850   -1.2198    1.2347 C   0  0  0  0  0  3  0  0  0  0  0  0
    1.4805   -1.0915    2.3300 H   0  0  0  0  0  0  0  0  0  0  0  0
   -3.0550   -1.1372    0.6137 C   0  0  0  0  0  0  0  0  0  0  0  0
   -2.5436   -1.7833   -0.5407 C   0  0  0  0  0  0  0  0  0  0  0  0
   -3.3006   -2.8416   -1.0905 C   0  0  0  0  0  0  0  0  0  0  0  0
   -2.9212   -3.3498   -1.9914 H   0  0  0  0  0  0  0  0  0  0  0  0
   -4.5059   -3.2611   -0.5094 C   0  0  0  0  0  0  0  0  0  0  0  0
   -5.0764   -4.0851   -0.9645 H   0  0  0  0  0  0  0  0  0  0  0  0
   -4.9778   -2.6330    0.6560 C   0  0  0  0  0  0  0  0  0  0  0  0
   -5.9199   -2.9607    1.1218 H   0  0  0  0  0  0  0  0  0  0  0  0
   -4.2524   -1.5738    1.2167 C   0  0  0  0  0  0  0  0  0  0  0  0
   -4.6224   -1.0594    2.1168 H   0  0  0  0  0  0  0  0  0  0  0  0
    3.1278   -1.0309   -0.6396 C   0  0  0  0  0  0  0  0  0  0  0  0
    2.6859   -1.5968    0.5826 C   0  0  0  0  0  0  0  0  0  0  0  0
    3.5096   -2.5692    1.1910 C   0  0  0  0  0  0  0  0  0  0  0  0
    3.1842   -3.0178    2.1433 H   0  0  0  0  0  0  0  0  0  0  0  0
    4.7177   -2.9759    0.6053 C   0  0  0  0  0  0  0  0  0  0  0  0
    5.3436   -3.7293    1.1076 H   0  0  0  0  0  0  0  0  0  0  0  0
    5.1241   -2.4246   -0.6217 C   0  0  0  0  0  0  0  0  0  0  0  0
    6.0690   -2.7428   -1.0884 H   0  0  0  0  0  0  0  0  0  0  0  0
    4.3276   -1.4542   -1.2446 C   0  0  0  0  0  0  0  0  0  0  0  0
    4.6425   -1.0012   -2.1972 H   0  0  0  0  0  0  0  0  0  0  0  0
  2 21  1  0  0  0  0
  3  5  1  0  0  0  0
  3 12  1  0  0  0  0
  4  3  1  0  0  0  0
  5  7  1  0  0  0  0
  6  5  1  0  0  0  0
  7  9  1  0  0  0  0
  7  8  1  0  0  0  0
  9 10  1  0  0  0  0
 11  1  1  0  0  0  0
 11 19  1  0  0  0  0
 12 11  2  0  0  0  0
 13 12  1  0  0  0  0
 13 15  2  0  0  0  0
 14 13  1  0  0  0  0
 15 17  1  0  0  0  0
 16 15  1  0  0  0  0
 17 18  1  0  0  0  0
 17 19  2  0  0  0  0
 19 20  1  0  0  0  0
 21 22  1  0  0  0  0
 22 23  2  0  0  0  0
 22  9  1  0  0  0  0
 23 24  1  0  0  0  0
 25 26  1  0  0  0  0
 25 23  1  0  0  0  0
 27 25  2  0  0  0  0
 28 27  1  0  0  0  0
 29 21  2  0  0  0  0
 29 27  1  0  0  0  0
 30 29  1  0  0  0  0
M  END
