5
 OpenBabel05122313113D

 38 39  0  0  0  0  0  0  0  0999 V2000
   -2.6175    4.0800    0.3494 O   0  0  0  0  0  0  0  0  0  0  0  0
    1.4787    2.5762   -0.8406 N   0  0  0  0  0  0  0  0  0  0  0  0
    0.0225    2.9753    0.7033 N   0  0  0  0  0  0  0  0  0  0  0  0
   -3.3473    2.0994    1.2552 N   0  0  0  0  0  0  0  0  0  0  0  0
    0.5608    1.9597   -0.0410 C   0  0  0  0  0  2  0  0  0  0  0  0
    1.4965    3.9486   -0.6183 C   0  0  0  0  0  0  0  0  0  0  0  0
    2.1628    4.6251   -1.1597 H   0  0  0  0  0  0  0  0  0  0  0  0
    0.5649    4.2021    0.3524 C   0  0  0  0  0  0  0  0  0  0  0  0
    0.2284    5.1369    0.8074 H   0  0  0  0  0  0  0  0  0  0  0  0
    2.3466    1.8882   -1.8150 C   0  0  0  0  0  0  0  0  0  0  0  0
    2.0785    0.8196   -1.6843 H   0  0  0  0  0  0  0  0  0  0  0  0
    3.8208    2.1007   -1.4687 C   0  0  0  0  0  0  0  0  0  0  0  0
    4.1223    3.1588   -1.6123 H   0  0  0  0  0  0  0  0  0  0  0  0
    4.4577    1.4846   -2.1338 H   0  0  0  0  0  0  0  0  0  0  0  0
    4.0362    1.8102   -0.4235 H   0  0  0  0  0  0  0  0  0  0  0  0
    1.9923    2.3089   -3.2421 C   0  0  0  0  0  0  0  0  0  0  0  0
    0.9233    2.1060   -3.4415 H   0  0  0  0  0  0  0  0  0  0  0  0
    2.6005    1.7298   -3.9652 H   0  0  0  0  0  0  0  0  0  0  0  0
    2.2037    3.3850   -3.4114 H   0  0  0  0  0  0  0  0  0  0  0  0
   -1.0483    2.8035    1.6684 C   0  0  0  0  0  0  0  0  0  0  0  0
   -0.9121    3.5482    2.4784 H   0  0  0  0  0  0  0  0  0  0  0  0
   -0.9416    1.7921    2.1075 H   0  0  0  0  0  0  0  0  0  0  0  0
   -2.4118    3.0657    1.0113 C   0  0  0  0  0  0  0  0  0  0  0  0
   -4.6717    2.1323    0.6590 C   0  0  0  0  0  0  0  0  0  0  0  0
   -4.7100    3.0877    0.0930 H   0  0  0  0  0  0  0  0  0  0  0  0
   -5.4533    2.1845    1.4478 H   0  0  0  0  0  0  0  0  0  0  0  0
   -4.9371    0.9511   -0.2532 C   0  0  0  0  0  0  0  0  0  0  0  0
   -3.9491    0.5116   -1.1561 C   0  0  0  0  0  0  0  0  0  0  0  0
   -2.9648    1.0024   -1.1996 H   0  0  0  0  0  0  0  0  0  0  0  0
   -4.1921   -0.5793   -2.0032 C   0  0  0  0  0  0  0  0  0  0  0  0
   -3.3895   -0.9055   -2.6816 H   0  0  0  0  0  0  0  0  0  0  0  0
   -5.4306   -1.2414   -1.9647 C   0  0  0  0  0  0  0  0  0  0  0  0
   -5.6218   -2.0994   -2.6273 H   0  0  0  0  0  0  0  0  0  0  0  0
   -6.4223   -0.8085   -1.0694 C   0  0  0  0  0  0  0  0  0  0  0  0
   -7.3932   -1.3258   -1.0270 H   0  0  0  0  0  0  0  0  0  0  0  0
   -6.1733    0.2781   -0.2158 C   0  0  0  0  0  0  0  0  0  0  0  0
   -6.9492    0.6072    0.4946 H   0  0  0  0  0  0  0  0  0  0  0  0
   -3.0437    1.2366    1.7108 H   0  0  0  0  0  0  0  0  0  0  0  0
  1 23  2  0  0  0  0
  2  6  1  0  0  0  0
  2  5  1  0  0  0  0
  3 20  1  0  0  0  0
  4 38  1  0  0  0  0
  5  3  1  0  0  0  0
  6  8  2  0  0  0  0
  7  6  1  0  0  0  0
  8  3  1  0  0  0  0
  8  9  1  0  0  0  0
 10 11  1  0  0  0  0
 10 12  1  0  0  0  0
 10  2  1  0  0  0  0
 12 15  1  0  0  0  0
 13 12  1  0  0  0  0
 14 12  1  0  0  0  0
 16 10  1  0  0  0  0
 17 16  1  0  0  0  0
 18 16  1  0  0  0  0
 19 16  1  0  0  0  0
 20 22  1  0  0  0  0
 20 21  1  0  0  0  0
 23  4  1  0  0  0  0
 23 20  1  0  0  0  0
 24  4  1  0  0  0  0
 24 26  1  0  0  0  0
 25 24  1  0  0  0  0
 27 36  1  0  0  0  0
 27 24  1  0  0  0  0
 28 27  2  0  0  0  0
 29 28  1  0  0  0  0
 30 32  2  0  0  0  0
 30 28  1  0  0  0  0
 31 30  1  0  0  0  0
 32 34  1  0  0  0  0
 33 32  1  0  0  0  0
 34 35  1  0  0  0  0
 34 36  2  0  0  0  0
 36 37  1  0  0  0  0
M  END
