1
 OpenBabel05122313113D

 16 15  0  0  0  0  0  0  0  0999 V2000
    1.5384    2.0415   -0.7971 C   0  0  0  0  0  3  0  0  0  0  0  0
    2.3394    2.4438   -1.4266 H   0  0  0  0  0  0  0  0  0  0  0  0
    0.4635    2.3389   -0.1115 C   0  0  0  0  0  3  0  0  0  0  0  0
   -0.4066    3.4963    0.2922 C   0  0  0  0  0  0  0  0  0  0  0  0
   -1.7414    3.4011   -0.4793 C   0  0  0  0  0  0  0  0  0  0  0  0
   -2.3849    4.2652   -0.2143 H   0  0  0  0  0  0  0  0  0  0  0  0
   -2.2851    2.4688   -0.2387 H   0  0  0  0  0  0  0  0  0  0  0  0
   -1.5704    3.4082   -1.5736 H   0  0  0  0  0  0  0  0  0  0  0  0
    0.3120    4.8105   -0.0776 C   0  0  0  0  0  0  0  0  0  0  0  0
    0.5019    4.8633   -1.1681 H   0  0  0  0  0  0  0  0  0  0  0  0
    1.2857    4.8930    0.4463 H   0  0  0  0  0  0  0  0  0  0  0  0
   -0.3078    5.6855    0.2073 H   0  0  0  0  0  0  0  0  0  0  0  0
   -0.6619    3.4511    1.8124 C   0  0  0  0  0  0  0  0  0  0  0  0
   -1.2904    4.3124    2.1181 H   0  0  0  0  0  0  0  0  0  0  0  0
    0.2906    3.5033    2.3778 H   0  0  0  0  0  0  0  0  0  0  0  0
   -1.1819    2.5188    2.1044 H   0  0  0  0  0  0  0  0  0  0  0  0
  1  3  2  0  0  0  0
  2  1  1  0  0  0  0
  3  4  1  0  0  0  0
  4 13  1  0  0  0  0
  5  7  1  0  0  0  0
  5  6  1  0  0  0  0
  5  4  1  0  0  0  0
  8  5  1  0  0  0  0
  9 12  1  0  0  0  0
  9  4  1  0  0  0  0
  9 11  1  0  0  0  0
 10  9  1  0  0  0  0
 13 16  1  0  0  0  0
 13 14  1  0  0  0  0
 13 15  1  0  0  0  0
M  END
