1
 OpenBabel05122313113D

 28 29  0  0  0  0  0  0  0  0999 V2000
    1.1141   -0.1609   -2.2940 C   0  0  0  0  0  3  0  0  0  0  0  0
    1.6142   -1.0338   -2.7480 H   0  0  0  0  0  0  0  0  0  0  0  0
    0.6454    0.4823   -3.0650 H   0  0  0  0  0  0  0  0  0  0  0  0
    1.9003    0.6032   -1.3289 C   0  0  0  0  0  0  0  0  0  0  0  0
    1.4930    1.6037   -1.1083 H   0  0  0  0  0  0  0  0  0  0  0  0
    3.0378    0.2811   -0.6176 C   0  0  0  0  0  0  0  0  0  0  0  0
    3.7437   -1.0213   -0.7256 C   0  0  0  0  0  0  0  0  0  0  0  0
    5.1594   -1.0596   -0.7736 C   0  0  0  0  0  0  0  0  0  0  0  0
    5.7228   -0.1149   -0.7298 H   0  0  0  0  0  0  0  0  0  0  0  0
    5.8449   -2.2756   -0.8882 C   0  0  0  0  0  0  0  0  0  0  0  0
    6.9451   -2.2788   -0.9335 H   0  0  0  0  0  0  0  0  0  0  0  0
    5.1335   -3.4862   -0.9532 C   0  0  0  0  0  0  0  0  0  0  0  0
    5.6726   -4.4416   -1.0468 H   0  0  0  0  0  0  0  0  0  0  0  0
    3.7316   -3.4638   -0.9016 C   0  0  0  0  0  0  0  0  0  0  0  0
    3.1516   -4.3975   -0.9619 H   0  0  0  0  0  0  0  0  0  0  0  0
    3.0449   -2.2471   -0.7844 C   0  0  0  0  0  0  0  0  0  0  0  0
    1.9465   -2.2626   -0.7519 H   0  0  0  0  0  0  0  0  0  0  0  0
    3.5563    1.2716    0.3638 C   0  0  0  0  0  0  0  0  0  0  0  0
    4.1564    0.8396    1.5737 C   0  0  0  0  0  0  0  0  0  0  0  0
    4.2943   -0.2386    1.7438 H   0  0  0  0  0  0  0  0  0  0  0  0
    4.5510    1.7560    2.5584 C   0  0  0  0  0  0  0  0  0  0  0  0
    5.0062    1.3879    3.4912 H   0  0  0  0  0  0  0  0  0  0  0  0
    4.3651    3.1342    2.3633 C   0  0  0  0  0  0  0  0  0  0  0  0
    4.6767    3.8539    3.1354 H   0  0  0  0  0  0  0  0  0  0  0  0
    3.7905    3.5827    1.1622 C   0  0  0  0  0  0  0  0  0  0  0  0
    3.6579    4.6614    0.9836 H   0  0  0  0  0  0  0  0  0  0  0  0
    3.3995    2.6678    0.1767 C   0  0  0  0  0  0  0  0  0  0  0  0
    2.9737    3.0400   -0.7671 H   0  0  0  0  0  0  0  0  0  0  0  0
  1  4  1  0  0  0  0
  2  1  1  0  0  0  0
  3  1  1  0  0  0  0
  4  5  1  0  0  0  0
  4  6  2  0  0  0  0
  6 18  1  0  0  0  0
  7  6  1  0  0  0  0
  8  9  1  0  0  0  0
  8  7  1  0  0  0  0
 10  8  2  0  0  0  0
 11 10  1  0  0  0  0
 12 14  2  0  0  0  0
 12 10  1  0  0  0  0
 13 12  1  0  0  0  0
 14 16  1  0  0  0  0
 15 14  1  0  0  0  0
 16 17  1  0  0  0  0
 16  7  2  0  0  0  0
 18 19  1  0  0  0  0
 19 20  1  0  0  0  0
 19 21  2  0  0  0  0
 21 22  1  0  0  0  0
 23 21  1  0  0  0  0
 23 24  1  0  0  0  0
 25 23  2  0  0  0  0
 26 25  1  0  0  0  0
 27 18  2  0  0  0  0
 27 25  1  0  0  0  0
 28 27  1  0  0  0  0
M  END
