24
 OpenBabel05122313113D

 34 34  0  0  1  0  0  0  0  0999 V2000
   -2.9161   -1.4582   -1.3080 O   0  0  0  0  0  0  0  0  0  0  0  0
   -2.1474   -1.2352   -1.9010 H   0  0  0  0  0  0  0  0  0  0  0  0
   -3.0441    1.2765   -1.4691 O   0  0  0  0  0  0  0  0  0  0  0  0
   -0.3781   -1.5353    2.8150 C   0  0  0  0  0  0  0  0  0  0  0  0
   -0.1293   -2.5504    2.4504 H   0  0  0  0  0  0  0  0  0  0  0  0
   -1.2696   -1.6297    3.4731 H   0  0  0  0  0  0  0  0  0  0  0  0
    0.4547   -1.1795    3.4506 H   0  0  0  0  0  0  0  0  0  0  0  0
   -0.6763   -0.6001    1.6944 C   0  0  0  0  0  0  0  0  0  0  0  0
   -1.4678   -0.7232    0.4860 C   0  0  0  0  0  0  0  0  0  0  0  0
   -2.3225   -1.8490   -0.0642 C   0  0  0  0  0  0  0  0  0  0  0  0
   -3.4968   -2.0957    0.8959 C   0  0  0  0  0  0  0  0  0  0  0  0
   -3.1411   -2.4515    1.8822 H   0  0  0  0  0  0  0  0  0  0  0  0
   -4.1737   -2.8575    0.4611 H   0  0  0  0  0  0  0  0  0  0  0  0
   -4.0751   -1.1620    1.0416 H   0  0  0  0  0  0  0  0  0  0  0  0
   -1.4907   -3.1251   -0.2724 C   0  0  0  0  0  0  0  0  0  0  0  0
   -0.6677   -2.9135   -0.9823 H   0  0  0  0  0  0  0  0  0  0  0  0
   -2.1367   -3.9233   -0.6876 H   0  0  0  0  0  0  0  0  0  0  0  0
   -1.0485   -3.4861    0.6774 H   0  0  0  0  0  0  0  0  0  0  0  0
   -0.3911    1.9836    2.5042 C   0  0  0  0  0  0  0  0  0  0  0  0
    0.4386    1.7451    3.1944 H   0  0  0  0  0  0  0  0  0  0  0  0
   -1.2889    2.1835    3.1288 H   0  0  0  0  0  0  0  0  0  0  0  0
   -0.1501    2.9236    1.9713 H   0  0  0  0  0  0  0  0  0  0  0  0
   -0.6793    0.8688    1.5587 C   0  0  2  0  0  3  0  0  0  0  0  0
   -1.4723    0.7780    0.3418 C   0  0  2  0  0  3  0  0  0  0  0  0
   -2.3569    1.8033   -0.3511 C   0  0  0  0  0  0  0  0  0  0  0  0
   -1.5064    2.9739   -0.8673 C   0  0  0  0  0  0  0  0  0  0  0  0
   -0.7509    2.5846   -1.5756 H   0  0  0  0  0  0  0  0  0  0  0  0
   -0.9907    3.5058   -0.0433 H   0  0  0  0  0  0  0  0  0  0  0  0
   -2.1625    3.6931   -1.3962 H   0  0  0  0  0  0  0  0  0  0  0  0
   -3.4032    2.2980    0.6812 C   0  0  0  0  0  0  0  0  0  0  0  0
   -3.9923    1.4406    1.0660 H   0  0  0  0  0  0  0  0  0  0  0  0
   -4.1025    2.9903    0.1721 H   0  0  0  0  0  0  0  0  0  0  0  0
   -2.9444    2.8236    1.5431 H   0  0  0  0  0  0  0  0  0  0  0  0
   -3.2031    0.3106   -1.3208 H   0  0  0  0  0  0  0  0  0  0  0  0
  1 10  1  0  0  0  0
  2  1  1  0  0  0  0
  3 34  1  0  0  0  0
  3 25  1  0  0  0  0
  4  7  1  0  0  0  0
  4  6  1  0  0  0  0
  5  4  1  0  0  0  0
  8  4  1  0  0  0  0
  9  8  2  0  0  0  0
 10  9  1  0  0  0  0
 10 11  1  0  0  0  0
 11 14  1  0  0  0  0
 11 12  1  0  0  0  0
 13 11  1  0  0  0  0
 15 10  1  0  0  0  0
 15 18  1  0  0  0  0
 16 15  1  0  0  0  0
 17 15  1  0  0  0  0
 19 21  1  0  0  0  0
 19 20  1  0  0  0  0
 22 19  1  0  0  0  0
 23  8  1  0  0  0  0
 23 19  1  1  0  0  0
 24 25  1  1  0  0  0
 24  9  1  0  0  0  0
 24 23  1  0  0  0  0
 25 30  1  0  0  0  0
 26 25  1  0  0  0  0
 26 28  1  0  0  0  0
 27 26  1  0  0  0  0
 29 26  1  0  0  0  0
 30 31  1  0  0  0  0
 30 33  1  0  0  0  0
 32 30  1  0  0  0  0
M  END
