3
 OpenBabel05122313113D

 27 28  0  0  0  0  0  0  0  0999 V2000
    0.6855    0.6602   -1.1548 Se  0  0  0  0  0  0  0  0  0  0  0  0
   -1.2680    2.2074    0.9687 N   0  0  0  0  0  0  0  0  0  0  0  0
   -1.6150    0.9056    1.3518 C   0  0  0  0  0  3  0  0  0  0  0  0
   -1.1716    0.4724    2.2591 H   0  0  0  0  0  0  0  0  0  0  0  0
   -2.8777    0.6197    0.7549 C   0  0  0  0  0  3  0  0  0  0  0  0
   -3.5215   -0.2213    1.0369 H   0  0  0  0  0  0  0  0  0  0  0  0
   -3.2445    1.7580   -0.0375 C   0  0  0  0  0  0  0  0  0  0  0  0
   -4.1609    1.8738   -0.6255 H   0  0  0  0  0  0  0  0  0  0  0  0
   -2.2381    2.6933    0.1118 C   0  0  0  0  0  0  0  0  0  0  0  0
   -2.1184    3.6783   -0.3569 H   0  0  0  0  0  0  0  0  0  0  0  0
    0.1032    2.6913    0.9511 C   0  0  0  0  0  0  0  0  0  0  0  0
    0.1254    3.7625    1.2479 H   0  0  0  0  0  0  0  0  0  0  0  0
    0.6805    2.1241    1.7082 H   0  0  0  0  0  0  0  0  0  0  0  0
    0.7242    2.5298   -0.4374 C   0  0  0  0  0  0  0  0  0  0  0  0
    1.7897    2.8303   -0.4451 H   0  0  0  0  0  0  0  0  0  0  0  0
    0.1852    3.1387   -1.1896 H   0  0  0  0  0  0  0  0  0  0  0  0
    2.2066    0.0824   -0.0769 C   0  0  0  0  0  0  0  0  0  0  0  0
    3.4798    0.5303   -0.4696 C   0  0  0  0  0  0  0  0  0  0  0  0
    3.5980    1.1631   -1.3633 H   0  0  0  0  0  0  0  0  0  0  0  0
    4.6064    0.1500    0.2764 C   0  0  0  0  0  0  0  0  0  0  0  0
    5.6046    0.4961   -0.0317 H   0  0  0  0  0  0  0  0  0  0  0  0
    4.4601   -0.6819    1.3978 C   0  0  0  0  0  0  0  0  0  0  0  0
    5.3454   -0.9855    1.9765 H   0  0  0  0  0  0  0  0  0  0  0  0
    3.1860   -1.1366    1.7718 C   0  0  0  0  0  0  0  0  0  0  0  0
    3.0668   -1.8001    2.6416 H   0  0  0  0  0  0  0  0  0  0  0  0
    2.0516   -0.7596    1.0358 C   0  0  0  0  0  0  0  0  0  0  0  0
    1.0527   -1.1350    1.3073 H   0  0  0  0  0  0  0  0  0  0  0  0
  1 14  1  0  0  0  0
  1 17  1  0  0  0  0
  2  3  1  0  0  0  0
  3  4  1  0  0  0  0
  5  6  1  0  0  0  0
  5  3  1  0  0  0  0
  7  9  2  0  0  0  0
  7  5  1  0  0  0  0
  8  7  1  0  0  0  0
  9  2  1  0  0  0  0
 10  9  1  0  0  0  0
 11  2  1  0  0  0  0
 11 12  1  0  0  0  0
 11 13  1  0  0  0  0
 14 11  1  0  0  0  0
 15 14  1  0  0  0  0
 16 14  1  0  0  0  0
 17 26  1  0  0  0  0
 18 17  2  0  0  0  0
 18 20  1  0  0  0  0
 19 18  1  0  0  0  0
 20 22  2  0  0  0  0
 21 20  1  0  0  0  0
 22 24  1  0  0  0  0
 22 23  1  0  0  0  0
 24 25  1  0  0  0  0
 26 27  1  0  0  0  0
 26 24  2  0  0  0  0
M  END
