4
 OpenBabel05122313113D

 15 14  0  0  0  0  0  0  0  0999 V2000
   -3.2514   -0.7685    0.0645 O   0  0  0  0  0  0  0  0  0  0  0  0
   -5.2414    0.3292   -0.0098 O   0  0  0  0  0  0  0  0  0  0  0  0
   -1.9061    1.7162    0.0157 N   0  0  0  0  0  2  0  0  0  0  0  0
   -0.8524    1.1179    0.0122 C   0  0  0  0  0  1  0  0  0  0  0  0
   -3.3110    1.6815    0.0022 C   0  0  0  0  0  0  0  0  0  0  0  0
   -3.7215    2.1988   -0.8948 H   0  0  0  0  0  0  0  0  0  0  0  0
   -3.7387    2.2309    0.8716 H   0  0  0  0  0  0  0  0  0  0  0  0
   -3.8897    0.2595    0.0234 C   0  0  0  0  0  0  0  0  0  0  0  0
   -5.9344   -0.9396    0.0078 C   0  0  0  0  0  0  0  0  0  0  0  0
   -5.6426   -1.4927    0.9258 H   0  0  0  0  0  0  0  0  0  0  0  0
   -5.5872   -1.5477   -0.8542 H   0  0  0  0  0  0  0  0  0  0  0  0
   -7.4216   -0.6597   -0.0467 C   0  0  0  0  0  0  0  0  0  0  0  0
   -7.9869   -1.6125   -0.0342 H   0  0  0  0  0  0  0  0  0  0  0  0
   -7.6898   -0.1101   -0.9708 H   0  0  0  0  0  0  0  0  0  0  0  0
   -7.7452   -0.0536    0.8227 H   0  0  0  0  0  0  0  0  0  0  0  0
  2  9  1  0  0  0  0
  2  8  1  0  0  0  0
  4  3  1  0  0  0  0
  5  3  1  0  0  0  0
  5  8  1  0  0  0  0
  5  7  1  0  0  0  0
  6  5  1  0  0  0  0
  8  1  2  0  0  0  0
  9 10  1  0  0  0  0
 11  9  1  0  0  0  0
 12 13  1  0  0  0  0
 12  9  1  0  0  0  0
 12 15  1  0  0  0  0
 14 12  1  0  0  0  0
M  END
