1
 OpenBabel05122313113D

 40 41  0  0  0  0  0  0  0  0999 V2000
    0.1515    1.2725   -0.7071 C   0  0  0  0  0  2  0  0  0  0  0  0
    0.7774    2.4431   -0.5679 N   0  0  0  0  0  0  0  0  0  0  0  0
    2.1399    2.5264    0.0109 C   0  0  0  0  0  0  0  0  0  0  0  0
    2.8515    1.9813   -0.6471 H   0  0  0  0  0  0  0  0  0  0  0  0
    2.1526    1.9993    0.9903 H   0  0  0  0  0  0  0  0  0  0  0  0
    0.2743    3.7771   -0.9753 C   0  0  0  0  0  0  0  0  0  0  0  0
   -0.7286    3.9711   -0.5380 H   0  0  0  0  0  0  0  0  0  0  0  0
    0.1642    3.8338   -2.0823 H   0  0  0  0  0  0  0  0  0  0  0  0
    1.3267    4.7220   -0.4615 C   0  0  0  0  0  0  0  0  0  0  0  0
    1.3412    6.1225   -0.4943 C   0  0  0  0  0  0  0  0  0  0  0  0
    0.5027    6.6852   -0.9332 H   0  0  0  0  0  0  0  0  0  0  0  0
    2.4486    6.7998    0.0435 C   0  0  0  0  0  0  0  0  0  0  0  0
    2.4766    7.8997    0.0268 H   0  0  0  0  0  0  0  0  0  0  0  0
    3.5214    6.0819    0.6025 C   0  0  0  0  0  0  0  0  0  0  0  0
    4.3826    6.6255    1.0194 H   0  0  0  0  0  0  0  0  0  0  0  0
    3.5034    4.6775    0.6337 C   0  0  0  0  0  0  0  0  0  0  0  0
    4.3442    4.1173    1.0706 H   0  0  0  0  0  0  0  0  0  0  0  0
    2.3977    4.0026    0.0991 C   0  0  0  0  0  0  0  0  0  0  0  0
   -1.2274    1.3180   -1.3252 C   0  0  0  0  0  0  0  0  0  0  0  0
   -1.3918    0.3437   -1.8248 H   0  0  0  0  0  0  0  0  0  0  0  0
   -1.2975    2.1020   -2.1140 H   0  0  0  0  0  0  0  0  0  0  0  0
   -2.3425    1.5376   -0.2847 C   0  0  0  0  0  0  0  0  0  0  0  0
   -2.1557    2.4765    0.2811 H   0  0  0  0  0  0  0  0  0  0  0  0
   -2.2848    0.7202    0.4635 H   0  0  0  0  0  0  0  0  0  0  0  0
   -3.7539    1.5734   -0.8847 C   0  0  0  0  0  0  0  0  0  0  0  0
   -4.4805    1.7062   -0.0520 H   0  0  0  0  0  0  0  0  0  0  0  0
   -3.8615    2.4757   -1.5271 H   0  0  0  0  0  0  0  0  0  0  0  0
   -4.1286    0.3121   -1.6745 C   0  0  0  0  0  0  0  0  0  0  0  0
   -3.7902   -0.5776   -1.1047 H   0  0  0  0  0  0  0  0  0  0  0  0
   -3.5673    0.2872   -2.6345 H   0  0  0  0  0  0  0  0  0  0  0  0
   -5.6255    0.1646   -1.9692 C   0  0  0  0  0  0  0  0  0  0  0  0
   -5.8009   -0.8277   -2.4414 H   0  0  0  0  0  0  0  0  0  0  0  0
   -6.1859    0.1383   -1.0061 H   0  0  0  0  0  0  0  0  0  0  0  0
   -6.2199    1.2541   -2.8686 C   0  0  0  0  0  0  0  0  0  0  0  0
   -6.0893    2.2485   -2.3883 H   0  0  0  0  0  0  0  0  0  0  0  0
   -5.6350    1.2999   -3.8149 H   0  0  0  0  0  0  0  0  0  0  0  0
   -7.6996    1.0353   -3.1862 C   0  0  0  0  0  0  0  0  0  0  0  0
   -7.8616    0.0661   -3.7032 H   0  0  0  0  0  0  0  0  0  0  0  0
   -8.1058    1.8342   -3.8390 H   0  0  0  0  0  0  0  0  0  0  0  0
   -8.3114    1.0178   -2.2597 H   0  0  0  0  0  0  0  0  0  0  0  0
  1  2  1  0  0  0  0
  2  3  1  0  0  0  0
  3 18  1  0  0  0  0
  3  5  1  0  0  0  0
  4  3  1  0  0  0  0
  6  2  1  0  0  0  0
  6  7  1  0  0  0  0
  6  9  1  0  0  0  0
  8  6  1  0  0  0  0
  9 18  1  0  0  0  0
 10  9  2  0  0  0  0
 10 12  1  0  0  0  0
 11 10  1  0  0  0  0
 12 14  2  0  0  0  0
 13 12  1  0  0  0  0
 14 16  1  0  0  0  0
 14 15  1  0  0  0  0
 16 17  1  0  0  0  0
 18 16  2  0  0  0  0
 19  1  1  0  0  0  0
 19 22  1  0  0  0  0
 20 19  1  0  0  0  0
 21 19  1  0  0  0  0
 22 23  1  0  0  0  0
 22 24  1  0  0  0  0
 25 22  1  0  0  0  0
 25 26  1  0  0  0  0
 27 25  1  0  0  0  0
 28 29  1  0  0  0  0
 28 25  1  0  0  0  0
 30 28  1  0  0  0  0
 31 28  1  0  0  0  0
 31 33  1  0  0  0  0
 32 31  1  0  0  0  0
 34 35  1  0  0  0  0
 34 31  1  0  0  0  0
 36 34  1  0  0  0  0
 37 34  1  0  0  0  0
 37 40  1  0  0  0  0
 38 37  1  0  0  0  0
 39 37  1  0  0  0  0
M  END
