4
 OpenBabel05122313113D

 55 57  0  0  1  0  0  0  0  0999 V2000
    3.4417   -0.1308    0.0132 B   0  0  0  0  0  0  0  0  0  0  0  0
    0.7750   -0.3964    0.2577 N   0  0  0  0  0  0  0  0  0  0  0  0
    0.1366    1.6630   -0.1089 N   0  0  0  0  0  0  0  0  0  0  0  0
   -0.3516    0.3962    0.1434 C   0  0  0  0  0  2  0  0  0  0  0  0
    1.9535    0.3550    0.0794 C   0  0  0  0  0  0  0  0  0  0  0  0
    1.5273    1.6414   -0.1247 C   0  0  0  0  0  0  0  0  0  0  0  0
    2.1245    2.5376   -0.2959 H   0  0  0  0  0  0  0  0  0  0  0  0
    0.8609   -1.8255    0.7285 C   0  0  0  0  0  0  0  0  0  0  0  0
    2.1215   -1.9393    1.6033 C   0  0  0  0  0  0  0  0  0  0  0  0
    3.0605   -1.7965    1.0167 H   0  0  0  0  0  0  0  0  0  0  0  0
    2.1926   -2.9604    2.0245 H   0  0  0  0  0  0  0  0  0  0  0  0
    2.1083   -1.2088    2.4341 H   0  0  0  0  0  0  0  0  0  0  0  0
    0.9792   -2.7875   -0.4671 C   0  0  0  0  0  0  0  0  0  0  0  0
    0.0406   -2.8211   -1.0479 H   0  0  0  0  0  0  0  0  0  0  0  0
    1.1842   -3.8124   -0.0994 H   0  0  0  0  0  0  0  0  0  0  0  0
    1.8013   -2.4955   -1.1464 H   0  0  0  0  0  0  0  0  0  0  0  0
   -0.3409   -2.2050    1.5963 C   0  0  0  0  0  0  0  0  0  0  0  0
   -0.4409   -1.5423    2.4762 H   0  0  0  0  0  0  0  0  0  0  0  0
   -0.2230   -3.2547    1.9316 H   0  0  0  0  0  0  0  0  0  0  0  0
   -1.2937   -2.1157    1.0271 H   0  0  0  0  0  0  0  0  0  0  0  0
   -0.5858    2.9856   -0.0052 C   0  0  0  0  0  0  0  0  0  0  0  0
   -0.5993    3.3747    1.4845 C   0  0  0  0  0  0  0  0  0  0  0  0
    0.4349    3.4320    1.8808 H   0  0  0  0  0  0  0  0  0  0  0  0
   -1.1653    2.6217    2.0705 H   0  0  0  0  0  0  0  0  0  0  0  0
   -1.0757    4.3673    1.6117 H   0  0  0  0  0  0  0  0  0  0  0  0
    0.1794    4.0386   -0.8293 C   0  0  0  0  0  0  0  0  0  0  0  0
    1.1548    4.3142   -0.3829 H   0  0  0  0  0  0  0  0  0  0  0  0
   -0.4273    4.9636   -0.8654 H   0  0  0  0  0  0  0  0  0  0  0  0
    0.3442    3.6968   -1.8708 H   0  0  0  0  0  0  0  0  0  0  0  0
   -2.0145    2.9116   -0.5461 C   0  0  0  0  0  0  0  0  0  0  0  0
   -2.5227    3.8718   -0.3313 H   0  0  0  0  0  0  0  0  0  0  0  0
   -2.5850    2.0896   -0.0597 H   0  0  0  0  0  0  0  0  0  0  0  0
   -2.0291    2.7463   -1.6406 H   0  0  0  0  0  0  0  0  0  0  0  0
    4.5773    0.5302    0.9007 C   0  0  1  0  0  0  0  0  0  0  0  0
    4.1654    1.0262    1.8038 H   0  0  0  0  0  0  0  0  0  0  0  0
    5.6098   -0.5306    1.3529 C   0  0  0  0  0  0  0  0  0  0  0  0
    6.4455   -0.0369    1.8973 H   0  0  0  0  0  0  0  0  0  0  0  0
    5.1139   -1.1853    2.1037 H   0  0  0  0  0  0  0  0  0  0  0  0
    6.1906   -1.4095    0.2290 C   0  0  0  0  0  0  0  0  0  0  0  0
    6.9731   -0.8439   -0.3139 H   0  0  0  0  0  0  0  0  0  0  0  0
    6.7259   -2.2700    0.6839 H   0  0  0  0  0  0  0  0  0  0  0  0
    5.1474   -1.9422   -0.7732 C   0  0  0  0  0  0  0  0  0  0  0  0
    4.6251   -2.8132   -0.3170 H   0  0  0  0  0  0  0  0  0  0  0  0
    5.6711   -2.3493   -1.6668 H   0  0  0  0  0  0  0  0  0  0  0  0
    4.0620   -0.9321   -1.2052 C   0  0  2  0  0  0  0  0  0  0  0  0
    3.3062   -1.4650   -1.8172 H   0  0  0  0  0  0  0  0  0  0  0  0
    4.5793    0.2493   -2.0928 C   0  0  0  0  0  0  0  0  0  0  0  0
    5.0166   -0.1687   -3.0265 H   0  0  0  0  0  0  0  0  0  0  0  0
    3.6963    0.8460   -2.4142 H   0  0  0  0  0  0  0  0  0  0  0  0
    5.5969    1.1851   -1.4164 C   0  0  0  0  0  0  0  0  0  0  0  0
    6.5847    0.6874   -1.3683 H   0  0  0  0  0  0  0  0  0  0  0  0
    5.7524    2.0758   -2.0619 H   0  0  0  0  0  0  0  0  0  0  0  0
    5.1738    1.6496   -0.0096 C   0  0  0  0  0  0  0  0  0  0  0  0
    4.4123    2.4539   -0.1118 H   0  0  0  0  0  0  0  0  0  0  0  0
    6.0371    2.1252    0.5077 H   0  0  0  0  0  0  0  0  0  0  0  0
  1  5  1  0  0  0  0
  1 34  1  0  0  0  0
  2  8  1  0  0  0  0
  3 21  1  0  0  0  0
  3  4  1  0  0  0  0
  4  2  1  0  0  0  0
  5  2  1  0  0  0  0
  6  3  1  0  0  0  0
  6  5  2  0  0  0  0
  7  6  1  0  0  0  0
  8 17  1  0  0  0  0
  8  9  1  0  0  0  0
  9 11  1  0  0  0  0
  9 12  1  0  0  0  0
 10  9  1  0  0  0  0
 13 15  1  0  0  0  0
 13  8  1  0  0  0  0
 14 13  1  0  0  0  0
 16 13  1  0  0  0  0
 17 19  1  0  0  0  0
 17 18  1  0  0  0  0
 20 17  1  0  0  0  0
 21 22  1  0  0  0  0
 22 25  1  0  0  0  0
 22 23  1  0  0  0  0
 22 24  1  0  0  0  0
 26 27  1  0  0  0  0
 26 21  1  0  0  0  0
 28 26  1  0  0  0  0
 29 26  1  0  0  0  0
 30 31  1  0  0  0  0
 30 32  1  0  0  0  0
 30 21  1  0  0  0  0
 33 30  1  0  0  0  0
 34 36  1  0  0  0  0
 34 35  1  1  0  0  0
 36 37  1  0  0  0  0
 36 38  1  0  0  0  0
 39 41  1  0  0  0  0
 39 36  1  0  0  0  0
 40 39  1  0  0  0  0
 42 43  1  0  0  0  0
 42 39  1  0  0  0  0
 44 42  1  0  0  0  0
 45 46  1  6  0  0  0
 45 42  1  0  0  0  0
 45  1  1  0  0  0  0
 47 50  1  0  0  0  0
 47 45  1  0  0  0  0
 48 47  1  0  0  0  0
 49 47  1  0  0  0  0
 50 51  1  0  0  0  0
 50 53  1  0  0  0  0
 52 50  1  0  0  0  0
 53 55  1  0  0  0  0
 53 34  1  0  0  0  0
 54 53  1  0  0  0  0
M  END
