2
 OpenBabel05122313113D

 34 35  0  0  1  0  0  0  0  0999 V2000
   -2.2162    0.1062   -1.2688 C   0  0  1  0  0  3  0  0  0  0  0  0
   -2.3218    1.1375   -0.2800 C   0  0  0  0  0  3  0  0  0  0  0  0
   -2.4440    2.2011   -0.5093 H   0  0  0  0  0  0  0  0  0  0  0  0
   -2.2800    0.5953    1.0441 C   0  0  2  0  0  3  0  0  0  0  0  0
   -2.1997   -0.8334    0.8851 C   0  0  0  0  0  0  0  0  0  0  0  0
   -2.2955   -1.9018    1.8301 C   0  0  0  0  0  0  0  0  0  0  0  0
   -2.3592   -1.6824    2.9053 H   0  0  0  0  0  0  0  0  0  0  0  0
   -2.3565   -3.2084    1.3736 C   0  0  0  0  0  0  0  0  0  0  0  0
   -2.4576   -4.0344    2.0939 H   0  0  0  0  0  0  0  0  0  0  0  0
   -2.3151   -3.5052   -0.0264 C   0  0  0  0  0  0  0  0  0  0  0  0
   -2.3804   -4.5540   -0.3538 H   0  0  0  0  0  0  0  0  0  0  0  0
   -2.2121   -2.4970   -0.9714 C   0  0  0  0  0  0  0  0  0  0  0  0
   -2.2071   -2.7346   -2.0454 H   0  0  0  0  0  0  0  0  0  0  0  0
   -2.1600   -1.1349   -0.5412 C   0  0  0  0  0  0  0  0  0  0  0  0
   -2.4913    0.2213   -2.7534 C   0  0  0  0  0  0  0  0  0  0  0  0
   -1.8717   -0.5462   -3.2665 H   0  0  0  0  0  0  0  0  0  0  0  0
   -3.9720   -0.1127   -3.0270 C   0  0  0  0  0  0  0  0  0  0  0  0
   -4.6341    0.6355   -2.5435 H   0  0  0  0  0  0  0  0  0  0  0  0
   -4.1878   -0.1071   -4.1155 H   0  0  0  0  0  0  0  0  0  0  0  0
   -4.2462   -1.1085   -2.6257 H   0  0  0  0  0  0  0  0  0  0  0  0
   -2.1212    1.5817   -3.3485 C   0  0  0  0  0  0  0  0  0  0  0  0
   -2.3076    1.5960   -4.4412 H   0  0  0  0  0  0  0  0  0  0  0  0
   -1.0501    1.7999   -3.1682 H   0  0  0  0  0  0  0  0  0  0  0  0
   -2.7316    2.3956   -2.9028 H   0  0  0  0  0  0  0  0  0  0  0  0
   -2.6315    1.2926    2.3415 C   0  0  0  0  0  0  0  0  0  0  0  0
   -2.0505    0.7982    3.1504 H   0  0  0  0  0  0  0  0  0  0  0  0
   -4.1294    1.0865    2.6447 C   0  0  0  0  0  0  0  0  0  0  0  0
   -4.4011    1.5233    3.6280 H   0  0  0  0  0  0  0  0  0  0  0  0
   -4.7536    1.5765    1.8688 H   0  0  0  0  0  0  0  0  0  0  0  0
   -4.3981    0.0116    2.6582 H   0  0  0  0  0  0  0  0  0  0  0  0
   -2.2717    2.7795    2.3641 C   0  0  0  0  0  0  0  0  0  0  0  0
   -1.1894    2.9163    2.1732 H   0  0  0  0  0  0  0  0  0  0  0  0
   -2.8430    3.3440    1.5969 H   0  0  0  0  0  0  0  0  0  0  0  0
   -2.5164    3.2280    3.3478 H   0  0  0  0  0  0  0  0  0  0  0  0
  1 15  1  6  0  0  0
  1 14  1  0  0  0  0
  1  2  1  0  0  0  0
  2  4  1  0  0  0  0
  3  2  1  0  0  0  0
  4 25  1  1  0  0  0
  5  4  1  0  0  0  0
  5  6  1  0  0  0  0
  6  7  1  0  0  0  0
  8  6  2  0  0  0  0
  8  9  1  0  0  0  0
 10  8  1  0  0  0  0
 11 10  1  0  0  0  0
 12 14  1  0  0  0  0
 12 10  2  0  0  0  0
 13 12  1  0  0  0  0
 14  5  2  0  0  0  0
 16 15  1  0  0  0  0
 17 15  1  0  0  0  0
 17 20  1  0  0  0  0
 17 18  1  0  0  0  0
 19 17  1  0  0  0  0
 21 23  1  0  0  0  0
 21 24  1  0  0  0  0
 21 15  1  0  0  0  0
 22 21  1  0  0  0  0
 25 31  1  0  0  0  0
 25 27  1  0  0  0  0
 25 26  1  0  0  0  0
 27 30  1  0  0  0  0
 27 28  1  0  0  0  0
 29 27  1  0  0  0  0
 31 34  1  0  0  0  0
 32 31  1  0  0  0  0
 33 31  1  0  0  0  0
M  END
