6
 OpenBabel05122313113D

 63 64  0  0  1  0  0  0  0  0999 V2000
    0.7593   -1.5788   -0.4073 O   0  0  0  0  0  0  0  0  0  0  0  0
    1.3904    0.5860   -0.2479 O   0  0  0  0  0  0  0  0  0  0  0  0
    1.9134   -1.3638    2.2675 O   0  0  0  0  0  0  0  0  0  0  0  0
    4.6311   -0.7191   -1.1290 O   0  0  0  0  0  0  0  0  0  0  0  0
   -2.5067    2.6526    1.4733 O   0  0  0  0  0  0  0  0  0  0  0  0
   -0.9194    0.1026   -0.7667 C   0  0  2  0  0  3  0  0  0  0  0  0
   -1.7425    1.1849   -0.3247 C   0  0  2  0  0  3  0  0  0  0  0  0
   -2.9372    1.4950   -1.0508 C   0  0  0  0  0  0  0  0  0  0  0  0
   -3.3260    0.7193   -2.1665 C   0  0  0  0  0  0  0  0  0  0  0  0
   -2.4955   -0.3498   -2.6249 C   0  0  0  0  0  0  0  0  0  0  0  0
   -1.3080   -0.6510   -1.9208 C   0  0  0  0  0  0  0  0  0  0  0  0
    0.3109   -0.3107    0.0102 C   0  0  1  0  0  0  0  0  0  0  0  0
    2.1484   -1.6439   -0.0691 C   0  0  1  0  0  0  0  0  0  0  0  0
    2.6043   -0.1612   -0.1442 C   0  0  1  0  0  0  0  0  0  0  0  0
    2.3931   -2.3236    1.3006 C   0  0  0  0  0  0  0  0  0  0  0  0
    1.6039   -3.6376    1.3612 C   0  0  0  0  0  0  0  0  0  0  0  0
    3.8985   -2.5709    1.4831 C   0  0  0  0  0  0  0  0  0  0  0  0
    1.8227   -1.7727    3.6141 C   0  0  0  0  0  0  0  0  0  0  0  0
    3.5193    0.1682   -1.3508 C   0  0  0  0  0  0  0  0  0  0  0  0
    3.9417    1.6401   -1.2622 C   0  0  0  0  0  0  0  0  0  0  0  0
    2.8121   -0.1195   -2.6812 C   0  0  0  0  0  0  0  0  0  0  0  0
    5.7150   -0.6454   -2.0265 C   0  0  0  0  0  0  0  0  0  0  0  0
   -1.3679    2.0677    0.8653 C   0  0  1  0  0  0  0  0  0  0  0  0
   -0.4457    3.2036    0.4013 C   0  0  0  0  0  0  0  0  0  0  0  0
    0.1164    4.0172    1.5693 C   0  0  0  0  0  0  0  0  0  0  0  0
    0.9399    5.2395    1.1439 C   0  0  0  0  0  0  0  0  0  0  0  0
    2.1926    4.9086    0.3286 C   0  0  0  0  0  0  0  0  0  0  0  0
   -3.5781    2.2947   -0.6563 H   0  0  0  0  0  0  0  0  0  0  0  0
   -4.2819    0.9252   -2.6685 H   0  0  0  0  0  0  0  0  0  0  0  0
   -2.8095   -0.9735   -3.4724 H   0  0  0  0  0  0  0  0  0  0  0  0
   -0.6843   -1.5088   -2.2045 H   0  0  0  0  0  0  0  0  0  0  0  0
    0.1014   -0.3264    1.1042 H   0  0  0  0  0  0  0  0  0  0  0  0
    2.6475   -2.2587   -0.8430 H   0  0  0  0  0  0  0  0  0  0  0  0
    3.1383    0.1215    0.7877 H   0  0  0  0  0  0  0  0  0  0  0  0
    0.5167   -3.4516    1.2761 H   0  0  0  0  0  0  0  0  0  0  0  0
    1.9010   -4.2952    0.5205 H   0  0  0  0  0  0  0  0  0  0  0  0
    1.8108   -4.1888    2.2995 H   0  0  0  0  0  0  0  0  0  0  0  0
    4.1095   -2.9843    2.4890 H   0  0  0  0  0  0  0  0  0  0  0  0
    4.2632   -3.3048    0.7381 H   0  0  0  0  0  0  0  0  0  0  0  0
    4.4802   -1.6399    1.3457 H   0  0  0  0  0  0  0  0  0  0  0  0
    1.5433   -0.8747    4.1994 H   0  0  0  0  0  0  0  0  0  0  0  0
    1.0422   -2.5501    3.7794 H   0  0  0  0  0  0  0  0  0  0  0  0
    2.7884   -2.1577    4.0169 H   0  0  0  0  0  0  0  0  0  0  0  0
    4.5220    1.8161   -0.3343 H   0  0  0  0  0  0  0  0  0  0  0  0
    4.5572    1.9486   -2.1302 H   0  0  0  0  0  0  0  0  0  0  0  0
    3.0439    2.2863   -1.2365 H   0  0  0  0  0  0  0  0  0  0  0  0
    1.8701    0.4586   -2.7295 H   0  0  0  0  0  0  0  0  0  0  0  0
    3.4386    0.1762   -3.5455 H   0  0  0  0  0  0  0  0  0  0  0  0
    2.5660   -1.1948   -2.7829 H   0  0  0  0  0  0  0  0  0  0  0  0
    6.4511   -1.4049   -1.6977 H   0  0  0  0  0  0  0  0  0  0  0  0
    5.4258   -0.8781   -3.0778 H   0  0  0  0  0  0  0  0  0  0  0  0
    6.2194    0.3487   -2.0191 H   0  0  0  0  0  0  0  0  0  0  0  0
   -0.8061    1.4455    1.6007 H   0  0  0  0  0  0  0  0  0  0  0  0
   -2.9581    1.9596    1.9943 H   0  0  0  0  0  0  0  0  0  0  0  0
    0.3727    2.7575   -0.1961 H   0  0  0  0  0  0  0  0  0  0  0  0
   -1.0339    3.8605   -0.2775 H   0  0  0  0  0  0  0  0  0  0  0  0
   -0.7303    4.3395    2.2098 H   0  0  0  0  0  0  0  0  0  0  0  0
    0.7477    3.3474    2.1970 H   0  0  0  0  0  0  0  0  0  0  0  0
    0.2904    5.9309    0.5616 H   0  0  0  0  0  0  0  0  0  0  0  0
    1.2344    5.8030    2.0555 H   0  0  0  0  0  0  0  0  0  0  0  0
    2.8527    4.2009    0.8736 H   0  0  0  0  0  0  0  0  0  0  0  0
    1.9415    4.4373   -0.6439 H   0  0  0  0  0  0  0  0  0  0  0  0
    2.7865    5.8185    0.1073 H   0  0  0  0  0  0  0  0  0  0  0  0
  1 13  1  0  0  0  0
  1 12  1  0  0  0  0
  2 14  1  0  0  0  0
  2 12  1  0  0  0  0
  3 18  1  0  0  0  0
  5 54  1  0  0  0  0
  6 11  1  1  0  0  0
  6  7  1  0  0  0  0
  6 12  1  0  0  0  0
  7 23  1  6  0  0  0
  8 28  1  0  0  0  0
  8  7  1  0  0  0  0
  9  8  2  0  0  0  0
 10  9  1  0  0  0  0
 10 11  2  0  0  0  0
 12 32  1  1  0  0  0
 13 33  1  6  0  0  0
 13 15  1  0  0  0  0
 14 13  1  0  0  0  0
 14 34  1  1  0  0  0
 15 16  1  0  0  0  0
 15 17  1  0  0  0  0
 15  3  1  0  0  0  0
 16 37  1  0  0  0  0
 17 38  1  0  0  0  0
 18 42  1  0  0  0  0
 18 43  1  0  0  0  0
 18 41  1  0  0  0  0
 19 20  1  0  0  0  0
 19  4  1  0  0  0  0
 19 14  1  0  0  0  0
 20 46  1  0  0  0  0
 20 44  1  0  0  0  0
 21 19  1  0  0  0  0
 22 52  1  0  0  0  0
 22 50  1  0  0  0  0
 22  4  1  0  0  0  0
 23  5  1  0  0  0  0
 23 53  1  1  0  0  0
 24 23  1  0  0  0  0
 24 25  1  0  0  0  0
 25 58  1  0  0  0  0
 25 57  1  0  0  0  0
 26 25  1  0  0  0  0
 26 60  1  0  0  0  0
 27 61  1  0  0  0  0
 27 26  1  0  0  0  0
 29  9  1  0  0  0  0
 30 10  1  0  0  0  0
 31 11  1  0  0  0  0
 35 16  1  0  0  0  0
 36 16  1  0  0  0  0
 39 17  1  0  0  0  0
 40 17  1  0  0  0  0
 45 20  1  0  0  0  0
 47 21  1  0  0  0  0
 48 21  1  0  0  0  0
 49 21  1  0  0  0  0
 51 22  1  0  0  0  0
 55 24  1  0  0  0  0
 56 24  1  0  0  0  0
 59 26  1  0  0  0  0
 62 27  1  0  0  0  0
 63 27  1  0  0  0  0
M  END
