15
 OpenBabel05122313113D

 29 30  0  0  1  0  0  0  0  0999 V2000
    0.7602    3.2968    0.1362 O   0  0  0  0  0  0  0  0  0  0  0  0
   -5.2705   -0.5185   -0.1541 O   0  0  0  0  0  0  0  0  0  0  0  0
   -2.4812   -0.1338    0.2150 N   0  0  0  0  0  0  0  0  0  0  0  0
    1.3856    0.2430   -1.8744 C   0  0  0  0  0  3  0  0  0  0  0  0
    2.0223    0.0747   -2.7579 H   0  0  0  0  0  0  0  0  0  0  0  0
    1.5629    1.4203   -1.0593 C   0  0  0  0  0  3  0  0  0  0  0  0
    2.4606    2.0286   -1.2592 H   0  0  0  0  0  0  0  0  0  0  0  0
   -0.1496   -0.7016   -0.1638 C   0  0  0  0  0  3  0  0  0  0  0  0
   -0.4967   -1.6669    0.2444 H   0  0  0  0  0  0  0  0  0  0  0  0
   -1.1186    0.3981    0.2619 C   0  0  1  0  0  0  0  0  0  0  0  0
   -0.9368    0.6219    1.3349 H   0  0  0  0  0  0  0  0  0  0  0  0
   -4.3286   -1.2045   -0.9606 C   0  0  0  0  0  0  0  0  0  0  0  0
   -4.8037   -1.3588   -1.9502 H   0  0  0  0  0  0  0  0  0  0  0  0
   -4.0904   -2.2042   -0.5185 H   0  0  0  0  0  0  0  0  0  0  0  0
    0.5316   -0.8086   -1.4326 C   0  0  0  0  0  3  0  0  0  0  0  0
    0.5540   -1.7645   -1.9817 H   0  0  0  0  0  0  0  0  0  0  0  0
    0.4907    2.2395   -0.4261 C   0  0  0  0  0  0  0  0  0  0  0  0
   -0.9260    1.7150   -0.5249 C   0  0  0  0  0  0  0  0  0  0  0  0
   -1.1681    1.5316   -1.5929 H   0  0  0  0  0  0  0  0  0  0  0  0
   -1.6035    2.4978   -0.1343 H   0  0  0  0  0  0  0  0  0  0  0  0
   -3.4499    0.5563    1.0577 C   0  0  0  0  0  0  0  0  0  0  0  0
   -3.7030    1.5781    0.6688 H   0  0  0  0  0  0  0  0  0  0  0  0
   -3.0239    0.6826    2.0754 H   0  0  0  0  0  0  0  0  0  0  0  0
   -3.0320   -0.4060   -1.1061 C   0  0  0  0  0  0  0  0  0  0  0  0
   -2.3004   -0.9898   -1.7029 H   0  0  0  0  0  0  0  0  0  0  0  0
   -3.2588    0.5337   -1.6756 H   0  0  0  0  0  0  0  0  0  0  0  0
   -4.7360   -0.2675    1.1354 C   0  0  0  0  0  0  0  0  0  0  0  0
   -4.5164   -1.2310    1.6595 H   0  0  0  0  0  0  0  0  0  0  0  0
   -5.5141    0.2775    1.7065 H   0  0  0  0  0  0  0  0  0  0  0  0
  2 27  1  0  0  0  0
  3 10  1  0  0  0  0
  3 21  1  0  0  0  0
  4 15  1  0  0  0  0
  4  6  1  0  0  0  0
  5  4  1  0  0  0  0
  6 17  1  0  0  0  0
  7  6  1  0  0  0  0
  8  9  1  0  0  0  0
  8 10  1  0  0  0  0
 10 11  1  1  0  0  0
 12 14  1  0  0  0  0
 12  2  1  0  0  0  0
 13 12  1  0  0  0  0
 15  8  1  0  0  0  0
 16 15  1  0  0  0  0
 17  1  2  0  0  0  0
 18 17  1  0  0  0  0
 18 20  1  0  0  0  0
 18 10  1  0  0  0  0
 19 18  1  0  0  0  0
 21 27  1  0  0  0  0
 21 23  1  0  0  0  0
 22 21  1  0  0  0  0
 24 12  1  0  0  0  0
 24  3  1  0  0  0  0
 25 24  1  0  0  0  0
 26 24  1  0  0  0  0
 27 28  1  0  0  0  0
 27 29  1  0  0  0  0
M  END
