1
 OpenBabel05122313113D

 27 28  0  0  0  0  0  0  0  0999 V2000
    0.1929   -2.0943   -0.1567 C   0  0  0  0  0  3  0  0  0  0  0  0
    1.4584   -2.6965   -0.2874 C   0  0  0  0  0  0  0  0  0  0  0  0
    2.3626   -2.0688   -0.3422 H   0  0  0  0  0  0  0  0  0  0  0  0
    1.6051   -4.0958   -0.3472 C   0  0  0  0  0  0  0  0  0  0  0  0
    2.6092   -4.5369   -0.4479 H   0  0  0  0  0  0  0  0  0  0  0  0
    0.4761   -4.9258   -0.2711 C   0  0  0  0  0  0  0  0  0  0  0  0
    0.5852   -6.0202   -0.3094 H   0  0  0  0  0  0  0  0  0  0  0  0
   -0.7938   -4.3487   -0.1500 C   0  0  0  0  0  0  0  0  0  0  0  0
   -1.6891   -4.9902   -0.0976 H   0  0  0  0  0  0  0  0  0  0  0  0
   -0.9500   -2.9431   -0.1048 C   0  0  0  0  0  0  0  0  0  0  0  0
   -2.3213   -2.4179   -0.0213 C   0  0  0  0  0  0  0  0  0  0  0  0
   -3.1256   -3.1791    0.1254 H   0  0  0  0  0  0  0  0  0  0  0  0
   -3.9155   -0.6841    0.0297 C   0  0  0  0  0  0  0  0  0  0  0  0
   -4.7085   -1.0589    1.1391 C   0  0  0  0  0  0  0  0  0  0  0  0
   -4.2914   -1.7631    1.8750 H   0  0  0  0  0  0  0  0  0  0  0  0
   -5.9811   -0.5042    1.3261 C   0  0  0  0  0  0  0  0  0  0  0  0
   -6.5808   -0.7938    2.2026 H   0  0  0  0  0  0  0  0  0  0  0  0
   -6.4785    0.4273    0.4027 C   0  0  0  0  0  0  0  0  0  0  0  0
   -7.4745    0.8727    0.5445 H   0  0  0  0  0  0  0  0  0  0  0  0
   -5.6946    0.7983   -0.7025 C   0  0  0  0  0  0  0  0  0  0  0  0
   -6.0878    1.5259   -1.4304 H   0  0  0  0  0  0  0  0  0  0  0  0
   -4.4116    0.2648   -0.9123 C   0  0  0  0  0  0  0  0  0  0  0  0
   -3.5843    0.6367   -2.1129 C   0  0  0  0  0  0  0  0  0  0  0  0
   -2.5652    0.9605   -1.8161 H   0  0  0  0  0  0  0  0  0  0  0  0
   -4.0588    1.4524   -2.6913 H   0  0  0  0  0  0  0  0  0  0  0  0
   -3.4445   -0.2309   -2.7913 H   0  0  0  0  0  0  0  0  0  0  0  0
   -2.6164   -1.1680   -0.1410 N   0  0  0  0  0  0  0  0  0  0  0  0
  1 10  1  0  0  0  0
  2  1  2  0  0  0  0
  3  2  1  0  0  0  0
  4  2  1  0  0  0  0
  4  6  2  0  0  0  0
  5  4  1  0  0  0  0
  6  8  1  0  0  0  0
  7  6  1  0  0  0  0
  8 10  2  0  0  0  0
  8  9  1  0  0  0  0
 10 11  1  0  0  0  0
 11 12  1  0  0  0  0
 13 14  1  0  0  0  0
 14 16  2  0  0  0  0
 14 15  1  0  0  0  0
 16 17  1  0  0  0  0
 18 19  1  0  0  0  0
 18 16  1  0  0  0  0
 20 18  2  0  0  0  0
 21 20  1  0  0  0  0
 22 20  1  0  0  0  0
 22 13  2  0  0  0  0
 23 24  1  0  0  0  0
 23 22  1  0  0  0  0
 25 23  1  0  0  0  0
 26 23  1  0  0  0  0
 27 11  2  0  0  0  0
 27 13  1  0  0  0  0
M  END
