12
 OpenBabel05122313113D

 79 85  0  0  1  0  0  0  0  0999 V2000
    1.7655   -0.0106    0.2214 P   0  0  0  0  0  0  0  0  0  0  0  0
    0.1128    2.5544   -1.5256 C   0  0  2  0  0  3  0  0  0  0  0  0
   -1.7674    0.0062    0.0426 P   0  0  0  0  0  0  0  0  0  0  0  0
    1.9830    1.4810    1.2721 C   0  0  0  0  0  0  0  0  0  0  0  0
    1.0534    2.5313    1.0681 C   0  0  0  0  0  0  0  0  0  0  0  0
   -1.1769    1.3559   -3.0954 C   0  0  0  0  0  3  0  0  0  0  0  0
   -2.1774    0.9898   -3.3694 H   0  0  0  0  0  0  0  0  0  0  0  0
   -0.0436    0.6540   -3.5421 C   0  0  0  0  0  0  0  0  0  0  0  0
   -0.1504   -0.2659   -4.1372 H   0  0  0  0  0  0  0  0  0  0  0  0
    1.2777    1.0423   -3.1046 C   0  0  0  0  0  0  0  0  0  0  0  0
    2.1757    0.5339   -3.4806 H   0  0  0  0  0  0  0  0  0  0  0  0
    1.3497    1.9876   -2.0345 C   0  0  0  0  0  3  0  0  0  0  0  0
    2.3176    2.1743   -1.5407 H   0  0  0  0  0  0  0  0  0  0  0  0
   -1.6252    2.7162    0.4805 C   0  0  0  0  0  0  0  0  0  0  0  0
   -2.1312    3.9841    0.8463 C   0  0  0  0  0  0  0  0  0  0  0  0
   -1.4625    4.8595    0.8392 H   0  0  0  0  0  0  0  0  0  0  0  0
   -3.4822    4.1654    1.1792 C   0  0  0  0  0  0  0  0  0  0  0  0
   -3.8517    5.1672    1.4482 H   0  0  0  0  0  0  0  0  0  0  0  0
   -4.3678    3.0757    1.1477 C   0  0  0  0  0  0  0  0  0  0  0  0
   -5.4315    3.2163    1.3934 H   0  0  0  0  0  0  0  0  0  0  0  0
   -3.8948    1.8048    0.7918 C   0  0  0  0  0  0  0  0  0  0  0  0
   -4.5892    0.9532    0.7543 H   0  0  0  0  0  0  0  0  0  0  0  0
   -2.5349    1.6303    0.4709 C   0  0  0  0  0  0  0  0  0  0  0  0
   -3.1772   -0.9991   -0.6188 C   0  0  0  0  0  0  0  0  0  0  0  0
   -4.1759   -1.4821    0.2552 C   0  0  0  0  0  0  0  0  0  0  0  0
   -4.0799   -1.3264    1.3399 H   0  0  0  0  0  0  0  0  0  0  0  0
   -5.2845   -2.1788   -0.2488 C   0  0  0  0  0  0  0  0  0  0  0  0
   -6.0563   -2.5470    0.4443 H   0  0  0  0  0  0  0  0  0  0  0  0
   -5.4030   -2.4140   -1.6276 C   0  0  0  0  0  0  0  0  0  0  0  0
   -6.2698   -2.9666   -2.0212 H   0  0  0  0  0  0  0  0  0  0  0  0
   -4.4019   -1.9580   -2.4984 C   0  0  0  0  0  0  0  0  0  0  0  0
   -4.4727   -2.1610   -3.5778 H   0  0  0  0  0  0  0  0  0  0  0  0
   -3.2943   -1.2583   -1.9966 C   0  0  0  0  0  0  0  0  0  0  0  0
   -2.4879   -0.9425   -2.6697 H   0  0  0  0  0  0  0  0  0  0  0  0
   -1.5585   -0.7969    1.6909 C   0  0  0  0  0  0  0  0  0  0  0  0
   -1.6449   -0.0611    2.8879 C   0  0  0  0  0  0  0  0  0  0  0  0
   -1.7820    1.0297    2.8533 H   0  0  0  0  0  0  0  0  0  0  0  0
   -1.5853   -0.7245    4.1250 C   0  0  0  0  0  0  0  0  0  0  0  0
   -1.6658   -0.1446    5.0571 H   0  0  0  0  0  0  0  0  0  0  0  0
   -1.4422   -2.1189    4.1712 C   0  0  0  0  0  0  0  0  0  0  0  0
   -1.4107   -2.6385    5.1410 H   0  0  0  0  0  0  0  0  0  0  0  0
   -1.3219   -2.8502    2.9771 C   0  0  0  0  0  0  0  0  0  0  0  0
   -1.1799   -3.9406    3.0087 H   0  0  0  0  0  0  0  0  0  0  0  0
   -1.3694   -2.1954    1.7407 C   0  0  0  0  0  0  0  0  0  0  0  0
   -1.2694   -2.7635    0.8029 H   0  0  0  0  0  0  0  0  0  0  0  0
    1.1967    3.6802    1.8855 C   0  0  0  0  0  0  0  0  0  0  0  0
    0.4875    4.5138    1.7715 H   0  0  0  0  0  0  0  0  0  0  0  0
    2.2166    3.7908    2.8385 C   0  0  0  0  0  0  0  0  0  0  0  0
    2.2975    4.7017    3.4520 H   0  0  0  0  0  0  0  0  0  0  0  0
    3.1309    2.7385    3.0191 C   0  0  0  0  0  0  0  0  0  0  0  0
    3.9277    2.8139    3.7746 H   0  0  0  0  0  0  0  0  0  0  0  0
    3.0109    1.5841    2.2372 C   0  0  0  0  0  0  0  0  0  0  0  0
    3.7070    0.7456    2.3904 H   0  0  0  0  0  0  0  0  0  0  0  0
    3.3828   -0.1938   -0.6879 C   0  0  0  0  0  0  0  0  0  0  0  0
    3.4892   -1.1946   -1.6797 C   0  0  0  0  0  0  0  0  0  0  0  0
    2.6164   -1.8274   -1.9101 H   0  0  0  0  0  0  0  0  0  0  0  0
    4.6769   -1.3507   -2.4080 C   0  0  0  0  0  0  0  0  0  0  0  0
    4.7414   -2.1397   -3.1730 H   0  0  0  0  0  0  0  0  0  0  0  0
    5.7699   -0.4991   -2.1776 C   0  0  0  0  0  0  0  0  0  0  0  0
    6.6997   -0.6199   -2.7540 H   0  0  0  0  0  0  0  0  0  0  0  0
    5.6601    0.5173   -1.2184 C   0  0  0  0  0  0  0  0  0  0  0  0
    6.5012    1.2050   -1.0414 H   0  0  0  0  0  0  0  0  0  0  0  0
    4.4763    0.6708   -0.4773 C   0  0  0  0  0  0  0  0  0  0  0  0
    4.4078    1.4820    0.2605 H   0  0  0  0  0  0  0  0  0  0  0  0
    1.8441   -1.4179    1.4230 C   0  0  0  0  0  0  0  0  0  0  0  0
    2.0888   -2.7305    0.9647 C   0  0  0  0  0  0  0  0  0  0  0  0
    2.1767   -2.9320   -0.1098 H   0  0  0  0  0  0  0  0  0  0  0  0
    2.2039   -3.7893    1.8762 C   0  0  0  0  0  0  0  0  0  0  0  0
    2.3968   -4.8058    1.5008 H   0  0  0  0  0  0  0  0  0  0  0  0
    2.0817   -3.5561    3.2547 C   0  0  0  0  0  0  0  0  0  0  0  0
    2.1843   -4.3872    3.9691 H   0  0  0  0  0  0  0  0  0  0  0  0
    1.8144   -2.2586    3.7139 C   0  0  0  0  0  0  0  0  0  0  0  0
    1.6898   -2.0650    4.7898 H   0  0  0  0  0  0  0  0  0  0  0  0
    1.6851   -1.1975    2.8065 C   0  0  0  0  0  0  0  0  0  0  0  0
    1.4488   -0.1939    3.1835 H   0  0  0  0  0  0  0  0  0  0  0  0
   -0.1251    2.4695   -0.0096 B   0  0  0  0  0  0  0  0  0  0  0  0
   -1.0044    2.7516   -2.5412 C   0  0  0  0  0  0  0  0  0  0  0  0
   -0.7522    3.4990   -3.3289 H   0  0  0  0  0  0  0  0  0  0  0  0
   -1.9278    3.0917   -2.0373 H   0  0  0  0  0  0  0  0  0  0  0  0
  1  4  1  0  0  0  0
  1 65  1  0  0  0  0
  2 76  1  1  0  0  0
  3 23  1  0  0  0  0
  3 35  1  0  0  0  0
  4 52  1  0  0  0  0
  5  4  2  0  0  0  0
  5 46  1  0  0  0  0
  6 77  1  0  0  0  0
  7  6  1  0  0  0  0
  8 10  2  0  0  0  0
  8  6  1  0  0  0  0
  9  8  1  0  0  0  0
 10 12  1  0  0  0  0
 11 10  1  0  0  0  0
 12 13  1  0  0  0  0
 12  2  1  0  0  0  0
 14 15  1  0  0  0  0
 15 17  2  0  0  0  0
 16 15  1  0  0  0  0
 17 18  1  0  0  0  0
 19 17  1  0  0  0  0
 19 20  1  0  0  0  0
 21 19  2  0  0  0  0
 22 21  1  0  0  0  0
 23 14  2  0  0  0  0
 23 21  1  0  0  0  0
 24  3  1  0  0  0  0
 24 25  1  0  0  0  0
 25 26  1  0  0  0  0
 27 25  2  0  0  0  0
 27 28  1  0  0  0  0
 29 27  1  0  0  0  0
 30 29  1  0  0  0  0
 31 33  1  0  0  0  0
 31 29  2  0  0  0  0
 32 31  1  0  0  0  0
 33 24  2  0  0  0  0
 34 33  1  0  0  0  0
 35 44  2  0  0  0  0
 35 36  1  0  0  0  0
 36 38  2  0  0  0  0
 37 36  1  0  0  0  0
 38 40  1  0  0  0  0
 38 39  1  0  0  0  0
 40 41  1  0  0  0  0
 42 43  1  0  0  0  0
 42 40  2  0  0  0  0
 44 42  1  0  0  0  0
 45 44  1  0  0  0  0
 46 48  2  0  0  0  0
 47 46  1  0  0  0  0
 48 50  1  0  0  0  0
 48 49  1  0  0  0  0
 50 51  1  0  0  0  0
 52 53  1  0  0  0  0
 52 50  2  0  0  0  0
 54 63  1  0  0  0  0
 54  1  1  0  0  0  0
 55 54  2  0  0  0  0
 56 55  1  0  0  0  0
 57 59  2  0  0  0  0
 57 55  1  0  0  0  0
 58 57  1  0  0  0  0
 59 61  1  0  0  0  0
 60 59  1  0  0  0  0
 61 62  1  0  0  0  0
 61 63  2  0  0  0  0
 63 64  1  0  0  0  0
 65 74  1  0  0  0  0
 66 65  2  0  0  0  0
 66 68  1  0  0  0  0
 67 66  1  0  0  0  0
 68 70  2  0  0  0  0
 69 68  1  0  0  0  0
 70 72  1  0  0  0  0
 70 71  1  0  0  0  0
 72 73  1  0  0  0  0
 74 75  1  0  0  0  0
 74 72  2  0  0  0  0
 76 14  1  0  0  0  0
 76  5  1  0  0  0  0
 77 79  1  0  0  0  0
 77  2  1  0  0  0  0
 78 77  1  0  0  0  0
M  END
