5
 OpenBabel05122313113D

 44 47  0  0  0  0  0  0  0  0999 V2000
    0.8425   -1.5006   -0.8978 N   0  0  0  0  0  0  0  0  0  0  0  0
   -4.6682   -1.2242    0.2831 N   0  0  0  0  0  2  0  0  0  0  0  0
   -5.3199   -0.2208   -0.1356 N   0  0  0  0  0  2  0  0  0  0  0  0
    2.9461   -1.0465   -1.1721 N   0  0  0  0  0  0  0  0  0  0  0  0
    1.7571   -0.4711   -0.8159 C   0  0  0  0  0  2  0  0  0  0  0  0
   -0.5518   -1.3939   -0.6090 C   0  0  0  0  0  0  0  0  0  0  0  0
   -1.2926   -0.2869   -1.0747 C   0  0  0  0  0  0  0  0  0  0  0  0
   -0.7880    0.4959   -1.6588 H   0  0  0  0  0  0  0  0  0  0  0  0
   -2.6539   -0.1980   -0.7904 C   0  0  0  0  0  0  0  0  0  0  0  0
   -3.2581    0.6516   -1.1370 H   0  0  0  0  0  0  0  0  0  0  0  0
   -3.2962   -1.2191   -0.0500 C   0  0  0  0  0  0  0  0  0  0  0  0
   -6.6922   -0.2144    0.1929 C   0  0  0  0  0  0  0  0  0  0  0  0
   -7.3429   -1.2338    0.9291 C   0  0  0  0  0  0  0  0  0  0  0  0
   -6.7439   -2.0897    1.2705 H   0  0  0  0  0  0  0  0  0  0  0  0
   -8.7086   -1.1256    1.1986 C   0  0  0  0  0  0  0  0  0  0  0  0
   -9.2191   -1.9155    1.7709 H   0  0  0  0  0  0  0  0  0  0  0  0
   -9.4384   -0.0092    0.7425 C   0  0  0  0  0  0  0  0  0  0  0  0
  -10.5146    0.0683    0.9600 H   0  0  0  0  0  0  0  0  0  0  0  0
   -8.7954    1.0037    0.0124 C   0  0  0  0  0  0  0  0  0  0  0  0
   -9.3652    1.8756   -0.3424 H   0  0  0  0  0  0  0  0  0  0  0  0
   -7.4259    0.9025   -0.2624 C   0  0  0  0  0  0  0  0  0  0  0  0
   -6.8864    1.6753   -0.8295 H   0  0  0  0  0  0  0  0  0  0  0  0
   -2.5467   -2.3245    0.4035 C   0  0  0  0  0  0  0  0  0  0  0  0
   -3.0673   -3.0981    0.9861 H   0  0  0  0  0  0  0  0  0  0  0  0
   -1.1784   -2.4127    0.1315 C   0  0  0  0  0  0  0  0  0  0  0  0
   -0.5873   -3.2565    0.5158 H   0  0  0  0  0  0  0  0  0  0  0  0
    1.4675   -2.6880   -1.2783 C   0  0  0  0  0  0  0  0  0  0  0  0
    0.9082   -3.6139   -1.4355 H   0  0  0  0  0  0  0  0  0  0  0  0
    2.7936   -2.3978   -1.4470 C   0  0  0  0  0  0  0  0  0  0  0  0
    3.6343   -3.0327   -1.7411 H   0  0  0  0  0  0  0  0  0  0  0  0
    4.2374   -0.3486   -1.1566 C   0  0  0  0  0  0  0  0  0  0  0  0
    3.9948    0.7330   -1.1533 H   0  0  0  0  0  0  0  0  0  0  0  0
    4.7670   -0.5847   -2.1008 H   0  0  0  0  0  0  0  0  0  0  0  0
    5.0801   -0.7249    0.0432 C   0  0  0  0  0  0  0  0  0  0  0  0
    4.6881   -0.3145    1.3338 C   0  0  0  0  0  0  0  0  0  0  0  0
    3.7782    0.2967    1.4540 H   0  0  0  0  0  0  0  0  0  0  0  0
    5.4516   -0.6773    2.4512 C   0  0  0  0  0  0  0  0  0  0  0  0
    5.1406   -0.3475    3.4539 H   0  0  0  0  0  0  0  0  0  0  0  0
    6.6138   -1.4515    2.2923 C   0  0  0  0  0  0  0  0  0  0  0  0
    7.2135   -1.7326    3.1713 H   0  0  0  0  0  0  0  0  0  0  0  0
    7.0113   -1.8603    1.0107 C   0  0  0  0  0  0  0  0  0  0  0  0
    7.9234   -2.4621    0.8798 H   0  0  0  0  0  0  0  0  0  0  0  0
    6.2450   -1.4988   -0.1091 C   0  0  0  0  0  0  0  0  0  0  0  0
    6.5611   -1.8149   -1.1166 H   0  0  0  0  0  0  0  0  0  0  0  0
  1  5  1  0  0  0  0
  1  6  1  0  0  0  0
  3 12  1  0  0  0  0
  3  2  1  0  0  0  0
  4 31  1  0  0  0  0
  4  5  1  0  0  0  0
  6 25  1  0  0  0  0
  7  9  1  0  0  0  0
  7  6  2  0  0  0  0
  8  7  1  0  0  0  0
  9 11  2  0  0  0  0
 10  9  1  0  0  0  0
 11  2  1  0  0  0  0
 11 23  1  0  0  0  0
 12 13  1  0  0  0  0
 13 15  2  0  0  0  0
 13 14  1  0  0  0  0
 15 16  1  0  0  0  0
 17 18  1  0  0  0  0
 17 15  1  0  0  0  0
 19 17  2  0  0  0  0
 20 19  1  0  0  0  0
 21 19  1  0  0  0  0
 21 12  2  0  0  0  0
 22 21  1  0  0  0  0
 23 24  1  0  0  0  0
 25 23  2  0  0  0  0
 25 26  1  0  0  0  0
 27  1  1  0  0  0  0
 28 27  1  0  0  0  0
 29 27  2  0  0  0  0
 29  4  1  0  0  0  0
 30 29  1  0  0  0  0
 31 32  1  0  0  0  0
 31 34  1  0  0  0  0
 33 31  1  0  0  0  0
 34 35  1  0  0  0  0
 35 36  1  0  0  0  0
 35 37  2  0  0  0  0
 37 38  1  0  0  0  0
 39 37  1  0  0  0  0
 39 40  1  0  0  0  0
 41 39  2  0  0  0  0
 42 41  1  0  0  0  0
 43 34  2  0  0  0  0
 43 41  1  0  0  0  0
 44 43  1  0  0  0  0
M  END
