2
 OpenBabel05122313113D

 25 26  0  0  0  0  0  0  0  0999 V2000
   -0.4986    1.3135    1.9977 O   0  0  0  0  0  0  0  0  0  0  0  0
   -0.6156   -0.7794    0.9054 C   0  0  0  0  0  3  0  0  0  0  0  0
   -1.0478   -2.1439    0.8965 C   0  0  0  0  0  0  0  0  0  0  0  0
   -0.7340   -3.0076   -0.1976 C   0  0  0  0  0  0  0  0  0  0  0  0
   -0.1300   -2.5916   -1.0214 H   0  0  0  0  0  0  0  0  0  0  0  0
   -1.1698   -4.3242   -0.2261 C   0  0  0  0  0  0  0  0  0  0  0  0
   -0.9135   -4.9707   -1.0796 H   0  0  0  0  0  0  0  0  0  0  0  0
   -1.9510   -4.8405    0.8433 C   0  0  0  0  0  0  0  0  0  0  0  0
   -2.3018   -5.8834    0.8115 H   0  0  0  0  0  0  0  0  0  0  0  0
   -2.2636   -4.0344    1.9288 C   0  0  0  0  0  0  0  0  0  0  0  0
   -2.8626   -4.4328    2.7634 H   0  0  0  0  0  0  0  0  0  0  0  0
   -1.8195   -2.6812    1.9958 C   0  0  0  0  0  0  0  0  0  0  0  0
   -2.1154   -1.8340    3.1016 C   0  0  0  0  0  0  0  0  0  0  0  0
   -2.7139   -2.2303    3.9362 H   0  0  0  0  0  0  0  0  0  0  0  0
   -1.6694   -0.5199    3.1245 C   0  0  0  0  0  0  0  0  0  0  0  0
   -1.9218    0.1394    3.9688 H   0  0  0  0  0  0  0  0  0  0  0  0
   -0.9212   -0.0098    2.0299 C   0  0  0  0  0  0  0  0  0  0  0  0
   -0.1649    1.9531    3.1621 C   0  0  0  0  0  0  0  0  0  0  0  0
    0.0900    1.2948    4.0109 H   0  0  0  0  0  0  0  0  0  0  0  0
   -0.0850    3.2975    3.2328 C   0  0  0  0  0  0  0  0  0  0  0  0
    0.2649    3.7137    4.1909 H   0  0  0  0  0  0  0  0  0  0  0  0
   -0.4043    4.2360    2.1103 C   0  0  0  0  0  0  0  0  0  0  0  0
   -1.1351    5.0127    2.4217 H   0  0  0  0  0  0  0  0  0  0  0  0
   -0.8221    3.6999    1.2374 H   0  0  0  0  0  0  0  0  0  0  0  0
    0.5026    4.7832    1.7684 H   0  0  0  0  0  0  0  0  0  0  0  0
  1 17  1  0  0  0  0
  1 18  1  0  0  0  0
  2 17  1  0  0  0  0
  3  2  2  0  0  0  0
  3 12  1  0  0  0  0
  4  3  1  0  0  0  0
  5  4  1  0  0  0  0
  6  4  2  0  0  0  0
  6  8  1  0  0  0  0
  7  6  1  0  0  0  0
  8 10  2  0  0  0  0
  9  8  1  0  0  0  0
 10 12  1  0  0  0  0
 10 11  1  0  0  0  0
 12 13  2  0  0  0  0
 13 15  1  0  0  0  0
 13 14  1  0  0  0  0
 15 16  1  0  0  0  0
 17 15  2  0  0  0  0
 18 20  2  0  0  0  0
 18 19  1  0  0  0  0
 20 21  1  0  0  0  0
 22 23  1  0  0  0  0
 22 20  1  0  0  0  0
 24 22  1  0  0  0  0
 25 22  1  0  0  0  0
M  END
