5
 OpenBabel05122313113D

 44 46  0  0  0  0  0  0  0  0999 V2000
    3.1851    1.7343   -0.4606 O   0  0  0  0  0  0  0  0  0  0  0  0
    3.7701   -0.4031   -0.7285 O   0  0  0  0  0  0  0  0  0  0  0  0
    1.5526    0.0397   -0.2212 N   0  0  0  0  0  0  0  0  0  0  0  0
    0.8599   -2.1642   -1.1402 C   0  0  0  0  0  0  0  0  0  0  0  0
    0.5038    0.9110   -0.0461 C   0  0  0  0  0  2  0  0  0  0  0  0
    1.3296   -1.3931   -0.0524 C   0  0  0  0  0  0  0  0  0  0  0  0
    1.5887   -1.9417    1.2282 C   0  0  0  0  0  0  0  0  0  0  0  0
    0.8922    2.3115    0.0308 C   0  0  0  0  0  0  0  0  0  0  0  0
    2.6645    4.0168   -0.1041 C   0  0  0  0  0  0  0  0  0  0  0  0
    3.7247    4.2504   -0.2742 H   0  0  0  0  0  0  0  0  0  0  0  0
    2.2389    2.6828   -0.1697 C   0  0  0  0  0  0  0  0  0  0  0  0
    0.7630   -1.6010   -2.5494 C   0  0  0  0  0  0  0  0  0  0  0  0
    0.6452   -0.5015   -2.4720 H   0  0  0  0  0  0  0  0  0  0  0  0
    0.5675   -3.5183   -0.8860 C   0  0  0  0  0  0  0  0  0  0  0  0
    0.1863   -4.1443   -1.7055 H   0  0  0  0  0  0  0  0  0  0  0  0
    0.7662   -4.0811    0.3807 C   0  0  0  0  0  0  0  0  0  0  0  0
    0.5287   -5.1418    0.5541 H   0  0  0  0  0  0  0  0  0  0  0  0
    2.8983    0.3991   -0.4928 C   0  0  0  0  0  0  0  0  0  0  0  0
    2.0671   -1.8986   -3.3171 C   0  0  0  0  0  0  0  0  0  0  0  0
    2.9557   -1.5188   -2.7772 H   0  0  0  0  0  0  0  0  0  0  0  0
    2.0364   -1.4293   -4.3217 H   0  0  0  0  0  0  0  0  0  0  0  0
    2.2001   -2.9923   -3.4553 H   0  0  0  0  0  0  0  0  0  0  0  0
   -0.4602   -2.1103   -3.3217 C   0  0  0  0  0  0  0  0  0  0  0  0
   -0.3732   -3.1855   -3.5839 H   0  0  0  0  0  0  0  0  0  0  0  0
   -0.5695   -1.5440   -4.2671 H   0  0  0  0  0  0  0  0  0  0  0  0
   -1.3896   -1.9640   -2.7388 H   0  0  0  0  0  0  0  0  0  0  0  0
   -0.0466    3.3398    0.2956 C   0  0  0  0  0  0  0  0  0  0  0  0
   -1.0979    3.0400    0.4228 H   0  0  0  0  0  0  0  0  0  0  0  0
    1.2913   -3.3045    1.4201 C   0  0  0  0  0  0  0  0  0  0  0  0
    1.4728   -3.7617    2.4041 H   0  0  0  0  0  0  0  0  0  0  0  0
    1.7151    5.0073    0.1690 C   0  0  0  0  0  0  0  0  0  0  0  0
    2.0341    6.0591    0.2227 H   0  0  0  0  0  0  0  0  0  0  0  0
    2.2305   -1.1347    2.3545 C   0  0  0  0  0  0  0  0  0  0  0  0
    2.1572   -0.0594    2.0902 H   0  0  0  0  0  0  0  0  0  0  0  0
    0.3590    4.6715    0.3682 C   0  0  0  0  0  0  0  0  0  0  0  0
   -0.3784    5.4611    0.5720 H   0  0  0  0  0  0  0  0  0  0  0  0
    1.5274   -1.3048    3.7107 C   0  0  0  0  0  0  0  0  0  0  0  0
    0.4535   -1.0375    3.6579 H   0  0  0  0  0  0  0  0  0  0  0  0
    2.0054   -0.6547    4.4710 H   0  0  0  0  0  0  0  0  0  0  0  0
    1.6000   -2.3472    4.0831 H   0  0  0  0  0  0  0  0  0  0  0  0
    3.7272   -1.4904    2.4631 C   0  0  0  0  0  0  0  0  0  0  0  0
    3.8513   -2.5512    2.7642 H   0  0  0  0  0  0  0  0  0  0  0  0
    4.2246   -0.8598    3.2284 H   0  0  0  0  0  0  0  0  0  0  0  0
    4.2465   -1.3495    1.4961 H   0  0  0  0  0  0  0  0  0  0  0  0
  1 11  1  0  0  0  0
  2 18  2  0  0  0  0
  3  6  1  0  0  0  0
  3  5  1  0  0  0  0
  4 14  2  0  0  0  0
  4  6  1  0  0  0  0
  5  8  1  0  0  0  0
  6  7  2  0  0  0  0
  7 29  1  0  0  0  0
  7 33  1  0  0  0  0
  8 27  1  0  0  0  0
  9 31  2  0  0  0  0
 10  9  1  0  0  0  0
 11  9  1  0  0  0  0
 11  8  2  0  0  0  0
 12 13  1  0  0  0  0
 12  4  1  0  0  0  0
 14 16  1  0  0  0  0
 15 14  1  0  0  0  0
 16 17  1  0  0  0  0
 16 29  2  0  0  0  0
 18  1  1  0  0  0  0
 18  3  1  0  0  0  0
 19 20  1  0  0  0  0
 19 12  1  0  0  0  0
 21 19  1  0  0  0  0
 22 19  1  0  0  0  0
 23 26  1  0  0  0  0
 23 12  1  0  0  0  0
 24 23  1  0  0  0  0
 25 23  1  0  0  0  0
 27 35  2  0  0  0  0
 27 28  1  0  0  0  0
 29 30  1  0  0  0  0
 31 32  1  0  0  0  0
 31 35  1  0  0  0  0
 33 41  1  0  0  0  0
 33 37  1  0  0  0  0
 34 33  1  0  0  0  0
 35 36  1  0  0  0  0
 37 40  1  0  0  0  0
 37 39  1  0  0  0  0
 38 37  1  0  0  0  0
 41 42  1  0  0  0  0
 41 43  1  0  0  0  0
 44 41  1  0  0  0  0
M  END
