8
 OpenBabel05122313113D

 42 44  0  0  1  0  0  0  0  0999 V2000
    0.1693   -1.1229   -0.8020 C   0  0  1  0  0  3  0  0  0  0  0  0
   -0.5211   -2.1510   -0.0945 C   0  0  0  0  0  0  0  0  0  0  0  0
   -0.2019   -2.6054    0.8490 H   0  0  0  0  0  0  0  0  0  0  0  0
   -1.7211   -2.4673   -0.7997 C   0  0  0  0  0  0  0  0  0  0  0  0
   -2.4805   -3.1909   -0.4810 H   0  0  0  0  0  0  0  0  0  0  0  0
   -1.7694   -1.6574   -1.9655 C   0  0  0  0  0  3  0  0  0  0  0  0
   -2.5752   -1.6439   -2.7077 H   0  0  0  0  0  0  0  0  0  0  0  0
   -0.6216   -0.8157   -1.9649 C   0  0  0  0  0  3  0  0  0  0  0  0
   -0.3720   -0.0785   -2.7374 H   0  0  0  0  0  0  0  0  0  0  0  0
    1.4716   -0.4476   -0.4200 C   0  0  2  0  0  0  0  0  0  0  0  0
    2.2327   -0.7868   -1.1503 H   0  0  0  0  0  0  0  0  0  0  0  0
    1.9368   -0.8276    0.9661 C   0  0  0  0  0  0  0  0  0  0  0  0
    1.1415   -1.0453    1.6988 H   0  0  0  0  0  0  0  0  0  0  0  0
    3.2090   -0.8884    1.4104 C   0  0  0  0  0  0  0  0  0  0  0  0
    3.3419   -1.1874    2.4653 H   0  0  0  0  0  0  0  0  0  0  0  0
    4.5086   -0.6645    0.6638 C   0  0  1  0  0  0  0  0  0  0  0  0
    5.2357   -0.2873    1.4193 H   0  0  0  0  0  0  0  0  0  0  0  0
    5.0402   -2.0196    0.1544 C   0  0  0  0  0  0  0  0  0  0  0  0
    5.0764   -2.7639    0.9746 H   0  0  0  0  0  0  0  0  0  0  0  0
    6.0621   -1.9344   -0.2647 H   0  0  0  0  0  0  0  0  0  0  0  0
    4.3733   -2.4274   -0.6334 H   0  0  0  0  0  0  0  0  0  0  0  0
   -0.0208    1.5694   -0.0353 C   0  0  0  0  0  0  0  0  0  0  0  0
   -0.4385    1.4812    1.3275 C   0  0  0  0  0  3  0  0  0  0  0  0
    0.1499    1.0618    2.1516 H   0  0  0  0  0  0  0  0  0  0  0  0
   -1.7467    2.0489    1.4377 C   0  0  0  0  0  0  0  0  0  0  0  0
   -2.3456    2.1008    2.3541 H   0  0  0  0  0  0  0  0  0  0  0  0
   -2.1486    2.4810    0.1493 C   0  0  0  0  0  0  0  0  0  0  0  0
   -3.1156    2.9252   -0.1109 H   0  0  0  0  0  0  0  0  0  0  0  0
   -1.0972    2.1691   -0.7657 C   0  0  0  0  0  0  0  0  0  0  0  0
   -1.0991    2.3735   -1.8441 H   0  0  0  0  0  0  0  0  0  0  0  0
    1.3064    1.1095   -0.6074 C   0  0  1  0  0  0  0  0  0  0  0  0
    1.2514    1.2873   -1.7053 H   0  0  0  0  0  0  0  0  0  0  0  0
    2.4384    1.9586   -0.0619 C   0  0  0  0  0  0  0  0  0  0  0  0
    2.1182    2.9375    0.3332 H   0  0  0  0  0  0  0  0  0  0  0  0
    3.7535    1.6682    0.0001 C   0  0  0  0  0  0  0  0  0  0  0  0
    4.4073    2.4316    0.4606 H   0  0  0  0  0  0  0  0  0  0  0  0
    4.4639    0.4168   -0.4628 C   0  0  1  0  0  0  0  0  0  0  0  0
    3.9154   -0.0139   -1.3264 H   0  0  0  0  0  0  0  0  0  0  0  0
    5.8750    0.7739   -0.9552 C   0  0  0  0  0  0  0  0  0  0  0  0
    5.8310    1.5543   -1.7407 H   0  0  0  0  0  0  0  0  0  0  0  0
    6.4029   -0.1009   -1.3816 H   0  0  0  0  0  0  0  0  0  0  0  0
    6.4927    1.1714   -0.1220 H   0  0  0  0  0  0  0  0  0  0  0  0
  1  8  1  1  0  0  0
  1 10  1  0  0  0  0
  1  2  1  0  0  0  0
  2  3  1  0  0  0  0
  4  5  1  0  0  0  0
  4  2  2  0  0  0  0
  6  8  1  0  0  0  0
  6  4  1  0  0  0  0
  7  6  1  0  0  0  0
  9  8  1  0  0  0  0
 10 11  1  6  0  0  0
 10 12  1  0  0  0  0
 12 14  2  0  0  0  0
 12 13  1  0  0  0  0
 14 15  1  0  0  0  0
 16 14  1  0  0  0  0
 16 17  1  1  0  0  0
 18 16  1  0  0  0  0
 18 19  1  0  0  0  0
 20 18  1  0  0  0  0
 21 18  1  0  0  0  0
 22 23  1  0  0  0  0
 23 25  1  0  0  0  0
 23 24  1  0  0  0  0
 25 26  1  0  0  0  0
 27 25  2  0  0  0  0
 28 27  1  0  0  0  0
 29 22  2  0  0  0  0
 29 27  1  0  0  0  0
 30 29  1  0  0  0  0
 31 32  1  6  0  0  0
 31 10  1  0  0  0  0
 31 33  1  0  0  0  0
 31 22  1  0  0  0  0
 33 35  2  0  0  0  0
 33 34  1  0  0  0  0
 35 36  1  0  0  0  0
 37 38  1  6  0  0  0
 37 35  1  0  0  0  0
 37 16  1  0  0  0  0
 39 37  1  0  0  0  0
 39 42  1  0  0  0  0
 40 39  1  0  0  0  0
 41 39  1  0  0  0  0
M  END
