3
 OpenBabel05122313113D

 25 27  0  0  0  0  0  0  0  0999 V2000
    0.4737    0.2154   -2.0731 C   0  0  0  0  0  3  0  0  0  0  0  0
    0.5326    1.2274   -2.4999 H   0  0  0  0  0  0  0  0  0  0  0  0
   -0.6018   -0.6308   -2.4606 C   0  0  0  0  0  3  0  0  0  0  0  0
   -1.3302   -0.3131   -3.2197 H   0  0  0  0  0  0  0  0  0  0  0  0
   -0.6964   -1.9178   -1.8266 C   0  0  0  0  0  3  0  0  0  0  0  0
   -1.5548   -2.5745   -2.0337 H   0  0  0  0  0  0  0  0  0  0  0  0
    0.3205   -2.3261   -0.9435 C   0  0  0  0  0  3  0  0  0  0  0  0
    0.2265   -3.2916   -0.4229 H   0  0  0  0  0  0  0  0  0  0  0  0
    5.1285   -2.0743    0.3935 C   0  0  0  0  0  0  0  0  0  0  0  0
    5.0720   -3.1128    0.7564 H   0  0  0  0  0  0  0  0  0  0  0  0
    6.2997   -1.3398    0.5410 C   0  0  0  0  0  0  0  0  0  0  0  0
    7.1801   -1.7955    1.0190 H   0  0  0  0  0  0  0  0  0  0  0  0
    6.3602   -0.0027    0.0761 C   0  0  0  0  0  0  0  0  0  0  0  0
    7.2876    0.5781    0.1932 H   0  0  0  0  0  0  0  0  0  0  0  0
    5.2515    0.5799   -0.5319 C   0  0  0  0  0  0  0  0  0  0  0  0
    5.2982    1.6177   -0.8963 H   0  0  0  0  0  0  0  0  0  0  0  0
    2.8747    0.4140   -1.3333 C   0  0  0  0  0  0  0  0  0  0  0  0
    2.7533   -2.2297   -0.3488 C   0  0  0  0  0  0  0  0  0  0  0  0
    2.7010   -3.2535    0.0550 H   0  0  0  0  0  0  0  0  0  0  0  0
    1.6761   -0.3214   -1.4643 C   0  0  0  0  0  0  0  0  0  0  0  0
    1.6132   -1.6639   -0.9170 C   0  0  0  0  0  0  0  0  0  0  0  0
    3.9767   -1.5081   -0.2230 C   0  0  0  0  0  0  0  0  0  0  0  0
    4.0448   -0.1498   -0.6999 C   0  0  0  0  0  0  0  0  0  0  0  0
    2.9125    1.7646   -1.7917 C   0  0  0  0  0  0  0  0  0  0  0  0
    2.9207    2.8904   -2.1379 N   0  0  0  0  0  0  0  0  0  0  0  0
  1 20  1  0  0  0  0
  2  1  1  0  0  0  0
  3  1  1  0  0  0  0
  3  5  1  0  0  0  0
  4  3  1  0  0  0  0
  5  7  1  0  0  0  0
  6  5  1  0  0  0  0
  7 21  1  0  0  0  0
  7  8  1  0  0  0  0
  9 11  1  0  0  0  0
  9 10  1  0  0  0  0
 11 12  1  0  0  0  0
 13 14  1  0  0  0  0
 13 11  2  0  0  0  0
 15 13  1  0  0  0  0
 16 15  1  0  0  0  0
 17 23  1  0  0  0  0
 18 22  1  0  0  0  0
 18 19  1  0  0  0  0
 20 17  2  0  0  0  0
 20 21  1  0  0  0  0
 21 18  2  0  0  0  0
 22  9  2  0  0  0  0
 23 15  2  0  0  0  0
 23 22  1  0  0  0  0
 24 17  1  0  0  0  0
 25 24  3  0  0  0  0
M  END
