22
 OpenBabel05122313113D

 22 23  0  0  0  0  0  0  0  0999 V2000
    0.0340   -1.6018   -1.6419 N   0  0  0  0  0  2  0  0  0  0  0  0
    2.2195   -0.2997   -1.2552 C   0  0  0  0  0  0  0  0  0  0  0  0
    2.6074    0.8799   -1.8906 C   0  0  0  0  0  0  0  0  0  0  0  0
    1.8550    1.4571   -2.4486 H   0  0  0  0  0  0  0  0  0  0  0  0
    3.9406    1.3422   -1.8112 C   0  0  0  0  0  0  0  0  0  0  0  0
    4.2152    2.2697   -2.3384 H   0  0  0  0  0  0  0  0  0  0  0  0
    4.9142    0.6702   -1.0747 C   0  0  0  0  0  0  0  0  0  0  0  0
    5.4766   -1.2851    0.3901 C   0  0  0  0  0  0  0  0  0  0  0  0
    6.5107   -0.9228    0.4790 H   0  0  0  0  0  0  0  0  0  0  0  0
    5.1056   -2.4530    1.0417 C   0  0  0  0  0  0  0  0  0  0  0  0
    5.8458   -3.0055    1.6405 H   0  0  0  0  0  0  0  0  0  0  0  0
    3.7769   -2.9382    0.9379 C   0  0  0  0  0  0  0  0  0  0  0  0
    3.4887   -3.8664    1.4542 H   0  0  0  0  0  0  0  0  0  0  0  0
    2.8416   -2.2442    0.1838 C   0  0  0  0  0  0  0  0  0  0  0  0
    1.8102   -2.6144    0.0896 H   0  0  0  0  0  0  0  0  0  0  0  0
    3.1922   -1.0412   -0.4943 C   0  0  0  0  0  0  0  0  0  0  0  0
    4.5435   -0.5417   -0.3939 C   0  0  0  0  0  0  0  0  0  0  0  0
    6.3201    1.2040   -0.9924 C   0  0  0  0  0  0  0  0  0  0  0  0
    6.4240    2.1390   -1.5753 H   0  0  0  0  0  0  0  0  0  0  0  0
    7.0614    0.4768   -1.3866 H   0  0  0  0  0  0  0  0  0  0  0  0
    6.6183    1.4243    0.0547 H   0  0  0  0  0  0  0  0  0  0  0  0
    0.8270   -0.7219   -1.2632 C   0  0  0  0  0  3  0  0  0  0  0  0
  1 22  2  0  0  0  0
  2 16  1  0  0  0  0
  3  5  1  0  0  0  0
  3  2  2  0  0  0  0
  4  3  1  0  0  0  0
  5  7  2  0  0  0  0
  6  5  1  0  0  0  0
  7 18  1  0  0  0  0
  7 17  1  0  0  0  0
  8  9  1  0  0  0  0
  8 10  1  0  0  0  0
 10 11  1  0  0  0  0
 12 10  2  0  0  0  0
 12 13  1  0  0  0  0
 14 12  1  0  0  0  0
 15 14  1  0  0  0  0
 16 17  1  0  0  0  0
 16 14  2  0  0  0  0
 17  8  2  0  0  0  0
 18 21  1  0  0  0  0
 19 18  1  0  0  0  0
 20 18  1  0  0  0  0
 22  2  1  0  0  0  0
M  END
