6
 OpenBabel05122313113D

 42 45  0  0  1  0  0  0  0  0999 V2000
   -0.4530   -1.8461   -0.4460 P   0  0  0  0  0  2  0  0  0  0  0  0
   -1.8092   -0.8091   -1.2886 C   0  0  2  0  0  0  0  0  0  0  0  0
   -1.6876   -0.8041   -2.3921 H   0  0  0  0  0  0  0  0  0  0  0  0
   -1.3766    0.4814   -0.6268 C   0  0  0  0  0  3  0  0  0  0  0  0
   -2.1717    1.0755   -0.1465 H   0  0  0  0  0  0  0  0  0  0  0  0
   -0.2326    1.2013   -1.1255 C   0  0  2  0  0  3  0  0  0  0  0  0
    0.9250    0.4049   -1.4322 C   0  0  0  0  0  0  0  0  0  0  0  0
    1.8234    0.9052   -1.8196 H   0  0  0  0  0  0  0  0  0  0  0  0
    1.0004   -0.9887   -1.1125 C   0  0  0  0  0  0  0  0  0  0  0  0
   -3.1680   -1.3343   -0.9250 C   0  0  0  0  0  0  0  0  0  0  0  0
   -3.8690   -2.1572   -1.8332 C   0  0  0  0  0  0  0  0  0  0  0  0
   -3.4197   -2.3723   -2.8159 H   0  0  0  0  0  0  0  0  0  0  0  0
   -5.1197   -2.6974   -1.5049 C   0  0  0  0  0  0  0  0  0  0  0  0
   -5.6480   -3.3317   -2.2334 H   0  0  0  0  0  0  0  0  0  0  0  0
   -5.7010   -2.4278   -0.2548 C   0  0  0  0  0  0  0  0  0  0  0  0
   -6.6843   -2.8492    0.0035 H   0  0  0  0  0  0  0  0  0  0  0  0
   -5.0163   -1.6126    0.6591 C   0  0  0  0  0  0  0  0  0  0  0  0
   -5.4609   -1.3920    1.6421 H   0  0  0  0  0  0  0  0  0  0  0  0
   -3.7641   -1.0730    0.3277 C   0  0  0  0  0  0  0  0  0  0  0  0
   -3.2370   -0.4377    1.0529 H   0  0  0  0  0  0  0  0  0  0  0  0
   -0.2081    2.6808   -1.2585 C   0  0  0  0  0  0  0  0  0  0  0  0
   -1.4091    3.4252   -1.1919 C   0  0  0  0  0  0  0  0  0  0  0  0
   -2.3645    2.8951   -1.0693 H   0  0  0  0  0  0  0  0  0  0  0  0
   -1.4089    4.8232   -1.3011 C   0  0  0  0  0  0  0  0  0  0  0  0
   -2.3615    5.3718   -1.2419 H   0  0  0  0  0  0  0  0  0  0  0  0
   -0.2075    5.5189   -1.5033 C   0  0  0  0  0  0  0  0  0  0  0  0
   -0.2060    6.6153   -1.5964 H   0  0  0  0  0  0  0  0  0  0  0  0
    0.9928    4.7954   -1.5964 C   0  0  0  0  0  0  0  0  0  0  0  0
    1.9440    5.3248   -1.7603 H   0  0  0  0  0  0  0  0  0  0  0  0
    0.9920    3.4010   -1.4713 C   0  0  0  0  0  0  0  0  0  0  0  0
    1.9508    2.8656   -1.5232 H   0  0  0  0  0  0  0  0  0  0  0  0
    2.2932   -1.7197   -1.2077 C   0  0  0  0  0  0  0  0  0  0  0  0
    3.5360   -1.0523   -1.3362 C   0  0  0  0  0  0  0  0  0  0  0  0
    3.5675    0.0454   -1.3710 H   0  0  0  0  0  0  0  0  0  0  0  0
    4.7415   -1.7626   -1.3989 C   0  0  0  0  0  0  0  0  0  0  0  0
    5.6902   -1.2127   -1.4977 H   0  0  0  0  0  0  0  0  0  0  0  0
    4.7456   -3.1659   -1.3290 C   0  0  0  0  0  0  0  0  0  0  0  0
    5.6936   -3.7229   -1.3740 H   0  0  0  0  0  0  0  0  0  0  0  0
    3.5242   -3.8466   -1.2132 C   0  0  0  0  0  0  0  0  0  0  0  0
    3.5064   -4.9465   -1.1712 H   0  0  0  0  0  0  0  0  0  0  0  0
    2.3185   -3.1337   -1.1646 C   0  0  0  0  0  0  0  0  0  0  0  0
    1.3621   -3.6749   -1.0935 H   0  0  0  0  0  0  0  0  0  0  0  0
  2  3  1  6  0  0  0
  2 10  1  0  0  0  0
  2  4  1  0  0  0  0
  2  1  1  0  0  0  0
  4  5  1  0  0  0  0
  6 21  1  1  0  0  0
  6  4  1  0  0  0  0
  7  6  1  0  0  0  0
  7  9  2  0  0  0  0
  8  7  1  0  0  0  0
  9  1  1  0  0  0  0
 10 19  1  0  0  0  0
 11 13  1  0  0  0  0
 11 10  2  0  0  0  0
 12 11  1  0  0  0  0
 13 15  2  0  0  0  0
 14 13  1  0  0  0  0
 15 16  1  0  0  0  0
 15 17  1  0  0  0  0
 17 18  1  0  0  0  0
 19 17  2  0  0  0  0
 19 20  1  0  0  0  0
 21 22  1  0  0  0  0
 22 23  1  0  0  0  0
 24 25  1  0  0  0  0
 24 22  2  0  0  0  0
 26 24  1  0  0  0  0
 27 26  1  0  0  0  0
 28 26  2  0  0  0  0
 28 30  1  0  0  0  0
 29 28  1  0  0  0  0
 30 21  2  0  0  0  0
 31 30  1  0  0  0  0
 32 41  1  0  0  0  0
 32  9  1  0  0  0  0
 33 32  2  0  0  0  0
 34 33  1  0  0  0  0
 35 33  1  0  0  0  0
 35 37  2  0  0  0  0
 36 35  1  0  0  0  0
 37 39  1  0  0  0  0
 38 37  1  0  0  0  0
 39 40  1  0  0  0  0
 39 41  2  0  0  0  0
 41 42  1  0  0  0  0
M  END
