2
 OpenBabel05122313113D

 19 19  0  0  1  0  0  0  0  0999 V2000
   -3.2812    0.5087   -0.3021 N   0  0  0  0  0  0  0  0  0  0  0  0
    0.0491   -0.5077   -0.0495 C   0  0  0  0  0  3  0  0  0  0  0  0
   -1.2004   -0.6798   -0.0604 C   0  0  0  0  0  0  0  0  0  0  0  0
   -2.5836   -0.6854   -0.0492 C   0  0  1  0  0  3  0  0  0  0  0  0
   -3.3798   -1.8453    0.2138 C   0  0  0  0  0  0  0  0  0  0  0  0
   -2.8392   -2.7821    0.4016 H   0  0  0  0  0  0  0  0  0  0  0  0
   -4.7616   -1.7858    0.2370 C   0  0  0  0  0  0  0  0  0  0  0  0
   -5.3498   -2.6914    0.4473 H   0  0  0  0  0  0  0  0  0  0  0  0
   -5.4175   -0.5508   -0.0110 C   0  0  0  0  0  0  0  0  0  0  0  0
   -6.5115   -0.4625   -0.0029 H   0  0  0  0  0  0  0  0  0  0  0  0
   -4.6438    0.5625   -0.2742 C   0  0  0  0  0  0  0  0  0  0  0  0
   -5.0817    1.5502   -0.4776 H   0  0  0  0  0  0  0  0  0  0  0  0
   -2.5109    1.7422   -0.5614 C   0  0  0  0  0  0  0  0  0  0  0  0
   -3.1695    2.4160   -1.1435 H   0  0  0  0  0  0  0  0  0  0  0  0
   -1.6524    1.4581   -1.2005 H   0  0  0  0  0  0  0  0  0  0  0  0
   -2.0163    2.4138    0.7161 C   0  0  0  0  0  0  0  0  0  0  0  0
   -1.4117    3.3017    0.4475 H   0  0  0  0  0  0  0  0  0  0  0  0
   -1.3658    1.7308    1.2954 H   0  0  0  0  0  0  0  0  0  0  0  0
   -2.8599    2.7398    1.3569 H   0  0  0  0  0  0  0  0  0  0  0  0
  1 11  1  0  0  0  0
  1  4  1  0  0  0  0
  3  2  3  0  0  0  0
  4  3  1  1  0  0  0
  4  5  1  0  0  0  0
  5  7  2  0  0  0  0
  5  6  1  0  0  0  0
  7  8  1  0  0  0  0
  9 10  1  0  0  0  0
  9  7  1  0  0  0  0
 11  9  2  0  0  0  0
 12 11  1  0  0  0  0
 13  1  1  0  0  0  0
 13 16  1  0  0  0  0
 14 13  1  0  0  0  0
 15 13  1  0  0  0  0
 16 18  1  0  0  0  0
 16 19  1  0  0  0  0
 17 16  1  0  0  0  0
M  END
