15
 OpenBabel05122313113D

 21 20  0  0  1  0  0  0  0  0999 V2000
   -3.0509    2.3543   -0.5454 Cl  0  0  0  0  0  0  0  0  0  0  0  0
   -1.7430    1.0576    1.4688 C   0  0  0  0  0  3  0  0  0  0  0  0
   -1.7381    0.4102    2.3598 H   0  0  0  0  0  0  0  0  0  0  0  0
   -1.0235    1.8883    1.4565 H   0  0  0  0  0  0  0  0  0  0  0  0
   -2.8609    1.0538    0.6401 C   0  0  1  0  0  3  0  0  0  0  0  0
   -4.1402    0.2564    0.8656 C   0  0  0  0  0  0  0  0  0  0  0  0
   -4.9649    0.9620    1.1018 H   0  0  0  0  0  0  0  0  0  0  0  0
   -3.9899   -0.3713    1.7678 H   0  0  0  0  0  0  0  0  0  0  0  0
   -4.4656   -0.6173   -0.3514 C   0  0  0  0  0  0  0  0  0  0  0  0
   -5.3624   -1.2428   -0.1581 H   0  0  0  0  0  0  0  0  0  0  0  0
   -4.6915    0.0282   -1.2240 H   0  0  0  0  0  0  0  0  0  0  0  0
   -3.2474   -1.4876   -0.6376 C   0  0  2  0  0  3  0  0  0  0  0  0
   -2.4892   -1.2835   -1.8234 C   0  0  0  0  0  3  0  0  0  0  0  0
   -2.8671   -0.5588   -2.5654 H   0  0  0  0  0  0  0  0  0  0  0  0
   -1.1250   -1.7072   -1.8956 C   0  0  0  0  0  3  0  0  0  0  0  0
   -0.5183   -1.3880   -2.7559 H   0  0  0  0  0  0  0  0  0  0  0  0
   -0.7817   -2.6365   -1.4126 H   0  0  0  0  0  0  0  0  0  0  0  0
   -3.0845   -2.6999    0.2427 C   0  0  0  0  0  0  0  0  0  0  0  0
   -3.1626   -2.4478    1.3191 H   0  0  0  0  0  0  0  0  0  0  0  0
   -2.1416   -3.2506    0.0771 H   0  0  0  0  0  0  0  0  0  0  0  0
   -3.9243   -3.3970    0.0233 H   0  0  0  0  0  0  0  0  0  0  0  0
  2  3  1  0  0  0  0
  4  2  1  0  0  0  0
  5  1  1  1  0  0  0
  5  6  1  0  0  0  0
  5  2  1  0  0  0  0
  6  7  1  0  0  0  0
  6  8  1  0  0  0  0
  9 10  1  0  0  0  0
  9  6  1  0  0  0  0
 11  9  1  0  0  0  0
 12 13  1  6  0  0  0
 12  9  1  0  0  0  0
 12 18  1  0  0  0  0
 14 13  1  0  0  0  0
 15 13  1  0  0  0  0
 15 17  1  0  0  0  0
 16 15  1  0  0  0  0
 18 19  1  0  0  0  0
 20 18  1  0  0  0  0
 21 18  1  0  0  0  0
M  END
