1
 OpenBabel05122313113D

 11 11  0  0  0  0  0  0  0  0999 V2000
    0.0306    1.8285   -1.5983 C   0  0  0  0  0  3  0  0  0  0  0  0
    0.8142    2.5816   -1.8225 H   0  0  0  0  0  0  0  0  0  0  0  0
   -0.2211    1.3196   -2.5558 H   0  0  0  0  0  0  0  0  0  0  0  0
   -1.1927    2.4955   -1.0275 C   0  0  0  0  0  0  0  0  0  0  0  0
   -1.0178    3.0464   -0.0862 H   0  0  0  0  0  0  0  0  0  0  0  0
   -2.2308    3.1178   -1.9439 C   0  0  0  0  0  0  0  0  0  0  0  0
   -2.6980    4.0680   -1.6404 H   0  0  0  0  0  0  0  0  0  0  0  0
   -2.0728    3.0195   -3.0300 H   0  0  0  0  0  0  0  0  0  0  0  0
   -2.5629    1.8674   -1.1618 C   0  0  0  0  0  0  0  0  0  0  0  0
   -3.2678    1.9436   -0.3185 H   0  0  0  0  0  0  0  0  0  0  0  0
   -2.6337    0.9212   -1.7224 H   0  0  0  0  0  0  0  0  0  0  0  0
  1  4  1  0  0  0  0
  2  1  1  0  0  0  0
  3  1  1  0  0  0  0
  4  5  1  0  0  0  0
  6  7  1  0  0  0  0
  6  9  1  0  0  0  0
  6  4  1  0  0  0  0
  8  6  1  0  0  0  0
  9  4  1  0  0  0  0
  9 10  1  0  0  0  0
 11  9  1  0  0  0  0
M  END
