18
 OpenBabel05122313113D

 27 28  0  0  0  0  0  0  0  0999 V2000
   -0.8787   -2.4624    0.5841 C   0  0  0  0  0  0  0  0  0  0  0  0
    0.0264   -3.0590    0.7747 H   0  0  0  0  0  0  0  0  0  0  0  0
   -1.9744   -3.0610   -0.0452 C   0  0  0  0  0  0  0  0  0  0  0  0
   -1.9682   -4.1114   -0.3644 H   0  0  0  0  0  0  0  0  0  0  0  0
   -3.1225   -2.2887   -0.2688 C   0  0  0  0  0  0  0  0  0  0  0  0
   -4.2894   -2.9200   -0.9380 N   0  0  0  0  0  0  0  0  0  0  0  0
   -5.2867   -2.2222   -1.1146 O   0  0  0  0  0  0  0  0  0  0  0  0
   -4.1795   -4.1002   -1.2714 O   0  0  0  0  0  0  0  0  0  0  0  0
   -3.2035   -0.9469    0.1198 C   0  0  0  0  0  0  0  0  0  0  0  0
   -4.1275   -0.3875   -0.0778 H   0  0  0  0  0  0  0  0  0  0  0  0
   -2.0980   -0.3531    0.7448 C   0  0  0  0  0  0  0  0  0  0  0  0
   -2.1315    0.7077    1.0542 H   0  0  0  0  0  0  0  0  0  0  0  0
   -0.9303   -1.1080    0.9777 C   0  0  0  0  0  0  0  0  0  0  0  0
    0.2621   -0.4461    1.6427 C   0  0  0  0  0  0  0  0  0  0  0  0
    0.5716   -0.9968    2.5528 H   0  0  0  0  0  0  0  0  0  0  0  0
    0.0066    0.5953    1.9207 H   0  0  0  0  0  0  0  0  0  0  0  0
    1.4383   -0.3822    0.7581 N   0  0  0  0  0  0  0  0  0  0  0  0
    1.5992    0.5787   -0.2039 C   0  0  0  0  0  2  0  0  0  0  0  0
    2.4787   -1.3023    0.7145 C   0  0  0  0  0  0  0  0  0  0  0  0
    2.6426   -2.6303    1.7741 Cl  0  0  0  0  0  0  0  0  0  0  0  0
    3.3191   -0.8988   -0.3029 C   0  0  0  0  0  0  0  0  0  0  0  0
    4.7789   -1.5899   -0.8482 Cl  0  0  0  0  0  0  0  0  0  0  0  0
    2.7591    0.2515   -0.8480 N   0  0  0  0  0  0  0  0  0  0  0  0
    3.3353    1.0095   -1.9475 C   0  0  0  0  0  0  0  0  0  0  0  0
    3.4196    0.3747   -2.8509 H   0  0  0  0  0  0  0  0  0  0  0  0
    2.6597    1.8605   -2.1493 H   0  0  0  0  0  0  0  0  0  0  0  0
    4.3403    1.3852   -1.6734 H   0  0  0  0  0  0  0  0  0  0  0  0
  1  2  1  0  0  0  0
  1 13  1  0  0  0  0
  3  1  2  0  0  0  0
  4  3  1  0  0  0  0
  5  3  1  0  0  0  0
  5  9  2  0  0  0  0
  6  5  1  0  0  0  0
  7  6  2  0  0  0  0
  8  6  2  0  0  0  0
  9 11  1  0  0  0  0
 10  9  1  0  0  0  0
 11 13  2  0  0  0  0
 11 12  1  0  0  0  0
 13 14  1  0  0  0  0
 14 16  1  0  0  0  0
 14 15  1  0  0  0  0
 17 14  1  0  0  0  0
 18 17  1  0  0  0  0
 19 17  1  0  0  0  0
 19 20  1  0  0  0  0
 21 19  2  0  0  0  0
 22 21  1  0  0  0  0
 23 21  1  0  0  0  0
 23 18  1  0  0  0  0
 24 27  1  0  0  0  0
 24 23  1  0  0  0  0
 25 24  1  0  0  0  0
 26 24  1  0  0  0  0
M  END
