1
 OpenBabel05122313113D

 26 25  0  0  1  0  0  0  0  0999 V2000
   -0.3438   -1.3972    1.7131 C   0  0  0  0  0  3  0  0  0  0  0  0
   -0.2945   -2.4877    1.5708 H   0  0  0  0  0  0  0  0  0  0  0  0
    0.4738   -0.9423    2.2980 H   0  0  0  0  0  0  0  0  0  0  0  0
   -1.6221   -0.7600    1.6560 C   0  0  2  0  0  3  0  0  0  0  0  0
   -2.9081   -1.5378    1.6054 C   0  0  0  0  0  0  0  0  0  0  0  0
   -2.8044   -2.4157    0.9384 H   0  0  0  0  0  0  0  0  0  0  0  0
   -3.7624   -0.9330    1.2529 H   0  0  0  0  0  0  0  0  0  0  0  0
   -3.1463   -1.8957    2.6297 H   0  0  0  0  0  0  0  0  0  0  0  0
   -1.5006    0.6754    1.6042 C   0  0  0  0  0  3  0  0  0  0  0  0
   -0.7094    1.1079    2.2428 H   0  0  0  0  0  0  0  0  0  0  0  0
   -2.6515    1.6216    1.3103 C   0  0  0  0  0  0  0  0  0  0  0  0
   -2.2582    2.6568    1.3581 H   0  0  0  0  0  0  0  0  0  0  0  0
   -3.4186    1.5635    2.1160 H   0  0  0  0  0  0  0  0  0  0  0  0
   -3.2744    1.3457   -0.0703 C   0  0  0  0  0  0  0  0  0  0  0  0
   -4.1280    0.6468    0.0221 H   0  0  0  0  0  0  0  0  0  0  0  0
   -3.6996    2.2787   -0.5042 H   0  0  0  0  0  0  0  0  0  0  0  0
   -2.2631    0.7236   -1.0173 C   0  0  0  0  0  3  0  0  0  0  0  0
   -2.6413   -0.1005   -1.6446 H   0  0  0  0  0  0  0  0  0  0  0  0
   -1.0907    1.4076   -1.4859 C   0  0  1  0  0  3  0  0  0  0  0  0
   -0.8069    2.8682   -1.2508 C   0  0  0  0  0  0  0  0  0  0  0  0
   -1.2909    3.4576   -2.0593 H   0  0  0  0  0  0  0  0  0  0  0  0
    0.2799    3.0746   -1.2838 H   0  0  0  0  0  0  0  0  0  0  0  0
   -1.2017    3.2410   -0.2879 H   0  0  0  0  0  0  0  0  0  0  0  0
   -0.1670    0.5522   -2.1607 C   0  0  0  0  0  3  0  0  0  0  0  0
    0.8322    0.9517   -2.4004 H   0  0  0  0  0  0  0  0  0  0  0  0
   -0.5241   -0.2825   -2.7838 H   0  0  0  0  0  0  0  0  0  0  0  0
  1  3  1  0  0  0  0
  2  1  1  0  0  0  0
  4  9  1  6  0  0  0
  4  1  1  0  0  0  0
  5  4  1  0  0  0  0
  5  8  1  0  0  0  0
  6  5  1  0  0  0  0
  7  5  1  0  0  0  0
  9 10  1  0  0  0  0
 11 12  1  0  0  0  0
 11  9  1  0  0  0  0
 11 13  1  0  0  0  0
 14 15  1  0  0  0  0
 14 11  1  0  0  0  0
 16 14  1  0  0  0  0
 17 14  1  0  0  0  0
 18 17  1  0  0  0  0
 19 24  1  1  0  0  0
 19 20  1  0  0  0  0
 19 17  1  0  0  0  0
 20 23  1  0  0  0  0
 21 20  1  0  0  0  0
 22 20  1  0  0  0  0
 25 24  1  0  0  0  0
 26 24  1  0  0  0  0
M  END
