3
 OpenBabel05122313113D

 71 74  0  0  0  0  0  0  0  0999 V2000
   -0.3031    2.1055    0.0951 N   0  0  0  0  0  0  0  0  0  0  0  0
   -2.2979    1.2870    0.1207 N   0  0  0  0  0  0  0  0  0  0  0  0
   -0.9868    0.9079    0.0547 C   0  0  0  0  0  2  0  0  0  0  0  0
   -2.4681    2.6582    0.2007 C   0  0  0  0  0  0  0  0  0  0  0  0
   -3.4543    3.1255    0.2594 H   0  0  0  0  0  0  0  0  0  0  0  0
   -1.1961    3.2108    0.1857 C   0  0  0  0  0  0  0  0  0  0  0  0
   -0.6715    4.5332    0.2361 C   0  0  0  0  0  0  0  0  0  0  0  0
   -1.3677    5.3801    0.3074 H   0  0  0  0  0  0  0  0  0  0  0  0
    0.6941    4.7085    0.1921 C   0  0  0  0  0  0  0  0  0  0  0  0
    1.1246    5.7196    0.2286 H   0  0  0  0  0  0  0  0  0  0  0  0
    1.5663    3.5754    0.0982 C   0  0  0  0  0  0  0  0  0  0  0  0
    2.6554    3.7114    0.0637 H   0  0  0  0  0  0  0  0  0  0  0  0
    3.6406   -1.1818   -0.2179 C   0  0  0  0  0  0  0  0  0  0  0  0
    2.2958    0.5592   -1.3167 C   0  0  0  0  0  0  0  0  0  0  0  0
    3.1425   -0.5605   -1.3746 C   0  0  0  0  0  0  0  0  0  0  0  0
    3.4039   -0.9881   -2.3554 H   0  0  0  0  0  0  0  0  0  0  0  0
    3.2756   -0.6482    1.0307 C   0  0  0  0  0  0  0  0  0  0  0  0
    3.6375   -1.1371    1.9484 H   0  0  0  0  0  0  0  0  0  0  0  0
    2.0072    0.9655    2.5230 C   0  0  0  0  0  0  0  0  0  0  0  0
    1.2803    1.7910    2.3707 H   0  0  0  0  0  0  0  0  0  0  0  0
    2.4313    0.4671    1.1460 C   0  0  0  0  0  0  0  0  0  0  0  0
    1.9550    1.0801   -0.0423 C   0  0  0  0  0  0  0  0  0  0  0  0
    1.2847   -0.1340    3.3196 C   0  0  0  0  0  0  0  0  0  0  0  0
    1.9641   -0.9765    3.5619 H   0  0  0  0  0  0  0  0  0  0  0  0
    0.4382   -0.5526    2.7370 H   0  0  0  0  0  0  0  0  0  0  0  0
    0.8919    0.2673    4.2765 H   0  0  0  0  0  0  0  0  0  0  0  0
    3.9410   -3.6060    0.4486 C   0  0  0  0  0  0  0  0  0  0  0  0
    4.5456   -4.5186    0.2681 H   0  0  0  0  0  0  0  0  0  0  0  0
    2.8924   -3.7962    0.1430 H   0  0  0  0  0  0  0  0  0  0  0  0
    3.9416   -3.4214    1.5435 H   0  0  0  0  0  0  0  0  0  0  0  0
    4.5321   -2.4098   -0.3158 C   0  0  0  0  0  0  0  0  0  0  0  0
    4.5743   -2.6857   -1.3920 H   0  0  0  0  0  0  0  0  0  0  0  0
    1.7436    1.1736   -2.5980 C   0  0  0  0  0  0  0  0  0  0  0  0
    0.9834    1.9281   -2.3047 H   0  0  0  0  0  0  0  0  0  0  0  0
    1.0301    0.1302   -3.4731 C   0  0  0  0  0  0  0  0  0  0  0  0
    1.7376   -0.6252   -3.8714 H   0  0  0  0  0  0  0  0  0  0  0  0
    0.5387    0.6173   -4.3403 H   0  0  0  0  0  0  0  0  0  0  0  0
    0.2601   -0.4160   -2.8900 H   0  0  0  0  0  0  0  0  0  0  0  0
    2.8429    1.9166   -3.3755 C   0  0  0  0  0  0  0  0  0  0  0  0
    3.3078    2.7097   -2.7556 H   0  0  0  0  0  0  0  0  0  0  0  0
    2.4313    2.3900   -4.2908 H   0  0  0  0  0  0  0  0  0  0  0  0
    3.6484    1.2201   -3.6874 H   0  0  0  0  0  0  0  0  0  0  0  0
    3.1974    1.5485    3.3023 C   0  0  0  0  0  0  0  0  0  0  0  0
    3.9737    0.7765    3.4831 H   0  0  0  0  0  0  0  0  0  0  0  0
    2.8728    1.9372    4.2895 H   0  0  0  0  0  0  0  0  0  0  0  0
    3.6756    2.3789    2.7444 H   0  0  0  0  0  0  0  0  0  0  0  0
    5.9664   -2.0925    0.1423 C   0  0  0  0  0  0  0  0  0  0  0  0
    6.4056   -1.2573   -0.4401 H   0  0  0  0  0  0  0  0  0  0  0  0
    6.6228   -2.9793    0.0249 H   0  0  0  0  0  0  0  0  0  0  0  0
    5.9859   -1.8017    1.2136 H   0  0  0  0  0  0  0  0  0  0  0  0
   -3.3749    0.3301    0.0976 C   0  0  0  0  0  0  0  0  0  0  0  0
   -5.4435   -1.5566    0.0479 C   0  0  0  0  0  0  0  0  0  0  0  0
   -4.9453   -1.0026   -1.1464 C   0  0  0  0  0  0  0  0  0  0  0  0
   -5.3715   -1.3231   -2.1103 H   0  0  0  0  0  0  0  0  0  0  0  0
   -3.9039   -0.0592   -1.1510 C   0  0  0  0  0  0  0  0  0  0  0  0
   -3.8319   -0.2031    1.3209 C   0  0  0  0  0  0  0  0  0  0  0  0
   -4.8750   -1.1433    1.2672 C   0  0  0  0  0  0  0  0  0  0  0  0
   -5.2457   -1.5749    2.2105 H   0  0  0  0  0  0  0  0  0  0  0  0
   -3.3310    0.4808   -2.4347 C   0  0  0  0  0  0  0  0  0  0  0  0
   -3.2941    1.5895   -2.4415 H   0  0  0  0  0  0  0  0  0  0  0  0
   -3.9221    0.1467   -3.3074 H   0  0  0  0  0  0  0  0  0  0  0  0
   -2.2867    0.1262   -2.5701 H   0  0  0  0  0  0  0  0  0  0  0  0
   -6.5280   -2.6034    0.0178 C   0  0  0  0  0  0  0  0  0  0  0  0
   -7.1335   -2.5933    0.9452 H   0  0  0  0  0  0  0  0  0  0  0  0
   -6.0869   -3.6191   -0.0747 H   0  0  0  0  0  0  0  0  0  0  0  0
   -7.2086   -2.4637   -0.8450 H   0  0  0  0  0  0  0  0  0  0  0  0
   -3.1835    0.1859    2.6231 C   0  0  0  0  0  0  0  0  0  0  0  0
   -3.1367    1.2864    2.7541 H   0  0  0  0  0  0  0  0  0  0  0  0
   -2.1363   -0.1841    2.6574 H   0  0  0  0  0  0  0  0  0  0  0  0
   -3.7271   -0.2447    3.4843 H   0  0  0  0  0  0  0  0  0  0  0  0
    1.0859    2.2848    0.0505 C   0  0  0  0  0  0  0  0  0  0  0  0
  1  6  1  0  0  0  0
  2  4  1  0  0  0  0
  3  1  1  0  0  0  0
  3  2  1  0  0  0  0
  4  5  1  0  0  0  0
  6  4  2  0  0  0  0
  6  7  1  0  0  0  0
  7  8  1  0  0  0  0
  9 10  1  0  0  0  0
  9  7  2  0  0  0  0
 11  9  1  0  0  0  0
 12 11  1  0  0  0  0
 13 17  1  0  0  0  0
 14 22  2  0  0  0  0
 15 14  1  0  0  0  0
 15 13  2  0  0  0  0
 16 15  1  0  0  0  0
 17 21  2  0  0  0  0
 17 18  1  0  0  0  0
 19 43  1  0  0  0  0
 19 23  1  0  0  0  0
 20 19  1  0  0  0  0
 21 19  1  0  0  0  0
 22 71  1  0  0  0  0
 22 21  1  0  0  0  0
 23 24  1  0  0  0  0
 23 26  1  0  0  0  0
 25 23  1  0  0  0  0
 27 30  1  0  0  0  0
 28 27  1  0  0  0  0
 29 27  1  0  0  0  0
 31 13  1  0  0  0  0
 31 47  1  0  0  0  0
 31 27  1  0  0  0  0
 32 31  1  0  0  0  0
 33 34  1  0  0  0  0
 33 14  1  0  0  0  0
 35 38  1  0  0  0  0
 35 33  1  0  0  0  0
 36 35  1  0  0  0  0
 37 35  1  0  0  0  0
 39 40  1  0  0  0  0
 39 33  1  0  0  0  0
 41 39  1  0  0  0  0
 42 39  1  0  0  0  0
 43 44  1  0  0  0  0
 43 45  1  0  0  0  0
 46 43  1  0  0  0  0
 47 50  1  0  0  0  0
 48 47  1  0  0  0  0
 49 47  1  0  0  0  0
 51  2  1  0  0  0  0
 51 56  1  0  0  0  0
 52 57  1  0  0  0  0
 53 52  2  0  0  0  0
 54 53  1  0  0  0  0
 55 53  1  0  0  0  0
 55 51  2  0  0  0  0
 56 67  1  0  0  0  0
 57 56  2  0  0  0  0
 57 58  1  0  0  0  0
 59 55  1  0  0  0  0
 60 59  1  0  0  0  0
 61 59  1  0  0  0  0
 62 59  1  0  0  0  0
 63 52  1  0  0  0  0
 63 64  1  0  0  0  0
 65 63  1  0  0  0  0
 66 63  1  0  0  0  0
 67 69  1  0  0  0  0
 67 68  1  0  0  0  0
 67 70  1  0  0  0  0
 71  1  1  0  0  0  0
 71 11  2  0  0  0  0
M  END
