12
 OpenBabel05122313113D

 37 36  0  0  1  0  0  0  0  0999 V2000
   -0.2776    2.6696   -0.1566 O   0  0  0  0  0  0  0  0  0  0  0  0
    0.1087    1.6360    1.8145 O   0  0  0  0  0  0  0  0  0  0  0  0
    2.9292   -2.5897    0.1607 O   0  0  0  0  0  0  0  0  0  0  0  0
    4.4727   -0.9322    0.2568 O   0  0  0  0  0  0  0  0  0  0  0  0
    2.2818    0.1882   -2.0746 O   0  0  0  0  0  0  0  0  0  0  0  0
    2.6276    1.8922   -0.6056 O   0  0  0  0  0  0  0  0  0  0  0  0
   -2.7371    1.4618   -1.0926 C   0  0  0  0  0  3  0  0  0  0  0  0
   -3.7570    1.6655   -1.4563 H   0  0  0  0  0  0  0  0  0  0  0  0
   -2.3071    2.2545   -0.4687 H   0  0  0  0  0  0  0  0  0  0  0  0
   -1.9052    0.6542   -1.9353 C   0  0  0  0  0  3  0  0  0  0  0  0
   -2.2585    0.3219   -2.9256 H   0  0  0  0  0  0  0  0  0  0  0  0
   -0.7243    0.0447   -1.4270 C   0  0  0  0  0  3  0  0  0  0  0  0
   -0.2012   -0.6965   -2.0505 H   0  0  0  0  0  0  0  0  0  0  0  0
   -0.2841    0.2388   -0.0586 C   0  0  2  0  0  3  0  0  0  0  0  0
   -0.1734    1.6315    0.4837 C   0  0  0  0  0  0  0  0  0  0  0  0
    0.3212    2.9299    2.3889 C   0  0  0  0  0  0  0  0  0  0  0  0
    0.5508    2.7549    3.4550 H   0  0  0  0  0  0  0  0  0  0  0  0
   -0.5842    3.5610    2.2880 H   0  0  0  0  0  0  0  0  0  0  0  0
    1.1654    3.4439    1.8867 H   0  0  0  0  0  0  0  0  0  0  0  0
    0.7526   -0.7803    0.4593 C   0  0  2  0  0  0  0  0  0  0  0  0
    0.6897   -1.6560   -0.2182 H   0  0  0  0  0  0  0  0  0  0  0  0
    0.5428   -1.2948    1.8912 C   0  0  0  0  0  0  0  0  0  0  0  0
   -0.4687   -1.7229    2.0172 H   0  0  0  0  0  0  0  0  0  0  0  0
    0.6594   -0.4822    2.6305 H   0  0  0  0  0  0  0  0  0  0  0  0
    1.2756   -2.0960    2.1062 H   0  0  0  0  0  0  0  0  0  0  0  0
    2.2112   -0.2514    0.3157 C   0  0  0  0  0  0  0  0  0  0  0  0
    2.4811    0.3753    1.1884 H   0  0  0  0  0  0  0  0  0  0  0  0
    3.2070   -1.4103    0.2399 C   0  0  0  0  0  0  0  0  0  0  0  0
    5.5051   -1.9203    0.1309 C   0  0  0  0  0  0  0  0  0  0  0  0
    6.4611   -1.3684    0.1557 H   0  0  0  0  0  0  0  0  0  0  0  0
    5.4013   -2.4748   -0.8232 H   0  0  0  0  0  0  0  0  0  0  0  0
    5.4555   -2.6488    0.9649 H   0  0  0  0  0  0  0  0  0  0  0  0
    2.3870    0.6045   -0.9355 C   0  0  0  0  0  0  0  0  0  0  0  0
    2.6113    2.8393   -1.6866 C   0  0  0  0  0  0  0  0  0  0  0  0
    3.1742    3.7221   -1.3349 H   0  0  0  0  0  0  0  0  0  0  0  0
    1.5587    3.1184   -1.8946 H   0  0  0  0  0  0  0  0  0  0  0  0
    3.0736    2.4054   -2.5935 H   0  0  0  0  0  0  0  0  0  0  0  0
  1 15  2  0  0  0  0
  2 16  1  0  0  0  0
  3 28  2  0  0  0  0
  5 33  2  0  0  0  0
  7  9  1  0  0  0  0
  8  7  1  0  0  0  0
 10 12  1  0  0  0  0
 10  7  1  0  0  0  0
 11 10  1  0  0  0  0
 13 12  1  0  0  0  0
 14 12  1  6  0  0  0
 14 20  1  0  0  0  0
 14 15  1  0  0  0  0
 15  2  1  0  0  0  0
 16 17  1  0  0  0  0
 18 16  1  0  0  0  0
 19 16  1  0  0  0  0
 20 21  1  6  0  0  0
 20 22  1  0  0  0  0
 22 23  1  0  0  0  0
 22 25  1  0  0  0  0
 22 24  1  0  0  0  0
 26 20  1  0  0  0  0
 26 27  1  0  0  0  0
 28  4  1  0  0  0  0
 28 26  1  0  0  0  0
 29 30  1  0  0  0  0
 29  4  1  0  0  0  0
 29 32  1  0  0  0  0
 31 29  1  0  0  0  0
 33  6  1  0  0  0  0
 33 26  1  0  0  0  0
 34 35  1  0  0  0  0
 34  6  1  0  0  0  0
 36 34  1  0  0  0  0
 37 34  1  0  0  0  0
M  END
