20
 OpenBabel05122313113D

 30 31  0  0  0  0  0  0  0  0999 V2000
   -3.6256   -0.3075    1.1585 C   0  0  0  0  0  0  0  0  0  0  0  0
   -2.9685   -0.7370    1.9285 H   0  0  0  0  0  0  0  0  0  0  0  0
   -4.6788    0.5391    1.5336 C   0  0  0  0  0  0  0  0  0  0  0  0
   -4.8470    0.7613    2.5988 H   0  0  0  0  0  0  0  0  0  0  0  0
   -5.5060    1.1114    0.5550 C   0  0  0  0  0  0  0  0  0  0  0  0
   -6.3305    1.7799    0.8460 H   0  0  0  0  0  0  0  0  0  0  0  0
   -5.2741    0.8210   -0.7998 C   0  0  0  0  0  0  0  0  0  0  0  0
   -5.9231    1.2567   -1.5751 H   0  0  0  0  0  0  0  0  0  0  0  0
   -4.2220   -0.0278   -1.1721 C   0  0  0  0  0  0  0  0  0  0  0  0
   -4.0504   -0.2593   -2.2338 H   0  0  0  0  0  0  0  0  0  0  0  0
   -3.3735   -0.6059   -0.1997 C   0  0  0  0  0  0  0  0  0  0  0  0
   -2.2421   -1.4896   -0.5896 C   0  0  0  0  0  0  0  0  0  0  0  0
   -1.2487   -0.9957   -1.5333 C   0  0  0  0  0  0  0  0  0  0  0  0
   -0.1208   -1.8455   -1.8483 C   0  0  0  0  0  0  0  0  0  0  0  0
    0.5154   -1.5744   -2.7108 H   0  0  0  0  0  0  0  0  0  0  0  0
   -0.0465   -3.1837   -1.3483 C   0  0  0  0  0  0  0  0  0  0  0  0
   -1.0334   -3.6197   -0.4742 C   0  0  0  0  0  0  0  0  0  0  0  0
   -0.9935   -4.6516   -0.0891 H   0  0  0  0  0  0  0  0  0  0  0  0
   -2.1247   -2.7913   -0.0770 C   0  0  0  0  0  0  0  0  0  0  0  0
   -1.1659    0.3665   -2.0138 C   0  0  0  0  0  3  0  0  0  0  0  0
   -1.9740    1.0686   -1.7703 H   0  0  0  0  0  0  0  0  0  0  0  0
   -0.7201    0.5252   -3.0130 H   0  0  0  0  0  0  0  0  0  0  0  0
   -3.1341   -3.3862    0.8771 C   0  0  0  0  0  0  0  0  0  0  0  0
   -4.1347   -2.9251    0.7792 H   0  0  0  0  0  0  0  0  0  0  0  0
   -2.8168   -3.2560    1.9348 H   0  0  0  0  0  0  0  0  0  0  0  0
   -3.2313   -4.4773    0.7074 H   0  0  0  0  0  0  0  0  0  0  0  0
    1.0376   -4.1107   -1.8286 C   0  0  0  0  0  0  0  0  0  0  0  0
    2.0444   -3.6786   -1.6680 H   0  0  0  0  0  0  0  0  0  0  0  0
    0.9446   -4.2960   -2.9203 H   0  0  0  0  0  0  0  0  0  0  0  0
    0.9947   -5.0907   -1.3148 H   0  0  0  0  0  0  0  0  0  0  0  0
  1  3  1  0  0  0  0
  1  2  1  0  0  0  0
  3  4  1  0  0  0  0
  5  6  1  0  0  0  0
  5  3  2  0  0  0  0
  7  5  1  0  0  0  0
  8  7  1  0  0  0  0
  9  7  2  0  0  0  0
  9 11  1  0  0  0  0
 10  9  1  0  0  0  0
 11  1  2  0  0  0  0
 12 11  1  0  0  0  0
 12 19  1  0  0  0  0
 13 12  2  0  0  0  0
 14 13  1  0  0  0  0
 14 16  2  0  0  0  0
 15 14  1  0  0  0  0
 16 17  1  0  0  0  0
 17 18  1  0  0  0  0
 17 19  2  0  0  0  0
 19 23  1  0  0  0  0
 20 21  1  0  0  0  0
 20 13  1  0  0  0  0
 22 20  1  0  0  0  0
 23 25  1  0  0  0  0
 24 23  1  0  0  0  0
 26 23  1  0  0  0  0
 27 28  1  0  0  0  0
 27 16  1  0  0  0  0
 27 30  1  0  0  0  0
 29 27  1  0  0  0  0
M  END
