3
 OpenBabel05122313113D

 35 37  0  0  0  0  0  0  0  0999 V2000
   -1.0852   -2.1833   -0.9539 N   0  0  0  0  0  0  0  0  0  0  0  0
    1.0848   -2.1834   -0.9540 N   0  0  0  0  0  0  0  0  0  0  0  0
   -0.0001   -1.3460   -0.9169 C   0  0  0  0  0  2  0  0  0  0  0  0
   -0.6839   -3.5185   -1.0011 C   0  0  0  0  0  0  0  0  0  0  0  0
   -1.4045   -4.3367   -1.0783 H   0  0  0  0  0  0  0  0  0  0  0  0
    0.6835   -3.5185   -1.0011 C   0  0  0  0  0  0  0  0  0  0  0  0
    1.4041   -4.3368   -1.0784 H   0  0  0  0  0  0  0  0  0  0  0  0
   -2.8943   -0.6923   -1.6934 C   0  0  0  0  0  0  0  0  0  0  0  0
   -2.1933   -0.1975   -2.3855 H   0  0  0  0  0  0  0  0  0  0  0  0
   -4.2291   -0.2833   -1.5988 C   0  0  0  0  0  0  0  0  0  0  0  0
   -4.5745    0.5487   -2.2327 H   0  0  0  0  0  0  0  0  0  0  0  0
   -5.1394   -0.9129   -0.7226 C   0  0  0  0  0  0  0  0  0  0  0  0
   -4.6658   -1.9788    0.0667 C   0  0  0  0  0  0  0  0  0  0  0  0
   -5.3521   -2.4835    0.7644 H   0  0  0  0  0  0  0  0  0  0  0  0
   -3.3295   -2.3973   -0.0042 C   0  0  0  0  0  0  0  0  0  0  0  0
   -2.9646   -3.2072    0.6448 H   0  0  0  0  0  0  0  0  0  0  0  0
   -2.4482   -1.7531   -0.8856 C   0  0  0  0  0  0  0  0  0  0  0  0
   -6.5693   -0.4436   -0.6328 C   0  0  0  0  0  0  0  0  0  0  0  0
   -7.1769   -1.1004    0.0191 H   0  0  0  0  0  0  0  0  0  0  0  0
   -7.0485   -0.4150   -1.6331 H   0  0  0  0  0  0  0  0  0  0  0  0
   -6.6261    0.5863   -0.2217 H   0  0  0  0  0  0  0  0  0  0  0  0
    2.4479   -1.7533   -0.8858 C   0  0  0  0  0  0  0  0  0  0  0  0
    3.3292   -2.3975   -0.0044 C   0  0  0  0  0  0  0  0  0  0  0  0
    2.9643   -3.2073    0.6446 H   0  0  0  0  0  0  0  0  0  0  0  0
    4.6656   -1.9791    0.0663 C   0  0  0  0  0  0  0  0  0  0  0  0
    5.3519   -2.4838    0.7640 H   0  0  0  0  0  0  0  0  0  0  0  0
    5.1392   -0.9132   -0.7231 C   0  0  0  0  0  0  0  0  0  0  0  0
    4.2289   -0.2836   -1.5992 C   0  0  0  0  0  0  0  0  0  0  0  0
    4.5743    0.5483   -2.2331 H   0  0  0  0  0  0  0  0  0  0  0  0
    2.8940   -0.6925   -1.6936 C   0  0  0  0  0  0  0  0  0  0  0  0
    2.1930   -0.1977   -2.3857 H   0  0  0  0  0  0  0  0  0  0  0  0
    6.5691   -0.4440   -0.6333 C   0  0  0  0  0  0  0  0  0  0  0  0
    7.1770   -1.1013    0.0179 H   0  0  0  0  0  0  0  0  0  0  0  0
    6.6260    0.5856   -0.2212 H   0  0  0  0  0  0  0  0  0  0  0  0
    7.0479   -0.4144   -1.6337 H   0  0  0  0  0  0  0  0  0  0  0  0
  1  3  1  0  0  0  0
  1 17  1  0  0  0  0
  2  3  1  0  0  0  0
  2 22  1  0  0  0  0
  4  1  1  0  0  0  0
  5  4  1  0  0  0  0
  6  4  2  0  0  0  0
  6  2  1  0  0  0  0
  7  6  1  0  0  0  0
  8 10  2  0  0  0  0
  8 17  1  0  0  0  0
  9  8  1  0  0  0  0
 10 12  1  0  0  0  0
 11 10  1  0  0  0  0
 12 18  1  0  0  0  0
 12 13  2  0  0  0  0
 13 14  1  0  0  0  0
 15 13  1  0  0  0  0
 15 16  1  0  0  0  0
 17 15  2  0  0  0  0
 18 21  1  0  0  0  0
 18 19  1  0  0  0  0
 20 18  1  0  0  0  0
 22 23  1  0  0  0  0
 23 25  2  0  0  0  0
 23 24  1  0  0  0  0
 25 26  1  0  0  0  0
 27 32  1  0  0  0  0
 27 25  1  0  0  0  0
 28 27  2  0  0  0  0
 29 28  1  0  0  0  0
 30 28  1  0  0  0  0
 30 22  2  0  0  0  0
 31 30  1  0  0  0  0
 32 34  1  0  0  0  0
 32 33  1  0  0  0  0
 35 32  1  0  0  0  0
M  END
