1
 OpenBabel05122313113D

 16 16  0  0  0  0  0  0  0  0999 V2000
    2.0865    0.4075   -0.0564 C   0  0  0  0  0  2  0  0  0  0  0  0
    2.8607   -0.7219   -0.0277 N   0  0  0  0  0  0  0  0  0  0  0  0
    2.3273   -2.0852   -0.0263 C   0  0  0  0  0  0  0  0  0  0  0  0
    3.1622   -2.7945    0.1373 H   0  0  0  0  0  0  0  0  0  0  0  0
    1.8594   -2.3217   -1.0083 H   0  0  0  0  0  0  0  0  0  0  0  0
    1.3037   -2.2865    1.0045 C   0  0  0  0  0  0  0  0  0  0  0  0
    0.4450   -2.4567    1.7812 N   0  0  0  0  0  0  0  0  0  0  0  0
    4.2138   -0.4143   -0.0553 C   0  0  0  0  0  0  0  0  0  0  0  0
    4.9987   -1.1769   -0.0400 H   0  0  0  0  0  0  0  0  0  0  0  0
    4.2926    0.9529   -0.1030 C   0  0  0  0  0  0  0  0  0  0  0  0
    5.1625    1.6162   -0.1332 H   0  0  0  0  0  0  0  0  0  0  0  0
    2.9882    1.4274   -0.1012 N   0  0  0  0  0  0  0  0  0  0  0  0
    2.6411    2.8431   -0.1369 C   0  0  0  0  0  0  0  0  0  0  0  0
    1.5401    2.9321   -0.1343 H   0  0  0  0  0  0  0  0  0  0  0  0
    3.0429    3.3127   -1.0554 H   0  0  0  0  0  0  0  0  0  0  0  0
    3.0521    3.3613    0.7509 H   0  0  0  0  0  0  0  0  0  0  0  0
  1  2  1  0  0  0  0
  2  3  1  0  0  0  0
  3  4  1  0  0  0  0
  3  6  1  0  0  0  0
  5  3  1  0  0  0  0
  6  7  3  0  0  0  0
  8  9  1  0  0  0  0
  8  2  1  0  0  0  0
 10 12  1  0  0  0  0
 10  8  2  0  0  0  0
 11 10  1  0  0  0  0
 12  1  1  0  0  0  0
 13 14  1  0  0  0  0
 13 12  1  0  0  0  0
 13 16  1  0  0  0  0
 15 13  1  0  0  0  0
M  END
