1
 OpenBabel05122313113D

 11 10  0  0  0  0  0  0  0  0999 V2000
    1.1968    0.7093   -0.0000 C   0  0  0  0  0  3  0  0  0  0  0  0
    1.4549    1.9126    0.0002 O   0  0  0  0  0  0  0  0  0  0  0  0
    3.6176    0.2989   -0.0000 C   0  0  0  0  0  0  0  0  0  0  0  0
    2.1367   -1.6422   -0.0003 C   0  0  0  0  0  0  0  0  0  0  0  0
    2.2627   -0.2069   -0.0004 N   0  0  0  0  0  0  0  0  0  0  0  0
    4.1831   -0.0449   -0.8990 H   0  0  0  0  0  0  0  0  0  0  0  0
    4.1826   -0.0448    0.8993 H   0  0  0  0  0  0  0  0  0  0  0  0
    3.5590    1.4042   -0.0000 H   0  0  0  0  0  0  0  0  0  0  0  0
    1.0611   -1.9009   -0.0016 H   0  0  0  0  0  0  0  0  0  0  0  0
    2.6165   -2.0918    0.9022 H   0  0  0  0  0  0  0  0  0  0  0  0
    2.6189   -2.0920   -0.9014 H   0  0  0  0  0  0  0  0  0  0  0  0
  1  2  2  0  0  0  0
  3  7  1  0  0  0  0
  4 10  1  0  0  0  0
  5  4  1  0  0  0  0
  5  3  1  0  0  0  0
  5  1  1  0  0  0  0
  6  3  1  0  0  0  0
  8  3  1  0  0  0  0
  9  4  1  0  0  0  0
 11  4  1  0  0  0  0
M  END
