3
 OpenBabel05122313113D

 31 32  0  0  1  0  0  0  0  0999 V2000
    0.4776   -0.1077    2.8404 Si  0  0  0  0  0  0  0  0  0  0  0  0
   -4.1773   -0.0481    1.2656 N   0  0  0  0  0  0  0  0  0  0  0  0
   -0.4888   -0.0734    1.1940 C   0  0  0  0  0  2  0  0  0  0  0  0
   -1.8452   -0.0668    0.9499 C   0  0  0  0  0  0  0  0  0  0  0  0
   -2.5082    0.0422   -0.3701 C   0  0  0  0  0  0  0  0  0  0  0  0
   -2.0462    0.1284   -1.6881 C   0  0  0  0  0  0  0  0  0  0  0  0
   -2.9808    0.2365   -2.7359 C   0  0  0  0  0  0  0  0  0  0  0  0
   -4.3630    0.2616   -2.4668 C   0  0  0  0  0  0  0  0  0  0  0  0
   -4.8414    0.1750   -1.1458 C   0  0  0  0  0  0  0  0  0  0  0  0
   -3.9079    0.0625   -0.1068 C   0  0  0  0  0  0  0  0  0  0  0  0
   -3.0194   -0.1331    1.8862 C   0  0  2  0  0  3  0  0  0  0  0  0
   -3.0103   -0.3423    3.3672 C   0  0  0  0  0  0  0  0  0  0  0  0
    2.3604   -0.1134    2.5900 C   0  0  0  0  0  0  0  0  0  0  0  0
    0.1484   -1.6827    3.8565 C   0  0  0  0  0  0  0  0  0  0  0  0
   -0.9618    0.1092   -1.8901 H   0  0  0  0  0  0  0  0  0  0  0  0
   -2.6231    0.3011   -3.7751 H   0  0  0  0  0  0  0  0  0  0  0  0
   -5.0774    0.3480   -3.3001 H   0  0  0  0  0  0  0  0  0  0  0  0
   -5.9171    0.1909   -0.9167 H   0  0  0  0  0  0  0  0  0  0  0  0
   -2.2679    0.2837    3.8941 H   0  0  0  0  0  0  0  0  0  0  0  0
   -2.7766   -1.3999    3.6109 H   0  0  0  0  0  0  0  0  0  0  0  0
    2.8409   -0.0663    3.5914 H   0  0  0  0  0  0  0  0  0  0  0  0
    2.7199   -1.0318    2.0888 H   0  0  0  0  0  0  0  0  0  0  0  0
   -0.8725   -1.7504    4.2726 H   0  0  0  0  0  0  0  0  0  0  0  0
    0.3211   -2.5859    3.2354 H   0  0  0  0  0  0  0  0  0  0  0  0
    0.8677   -1.7206    4.7012 H   0  0  0  0  0  0  0  0  0  0  0  0
    2.7268    0.7451    1.9969 H   0  0  0  0  0  0  0  0  0  0  0  0
    0.1288    1.4696    3.8529 C   0  0  0  0  0  0  0  0  0  0  0  0
    0.5503    1.3615    4.8741 H   0  0  0  0  0  0  0  0  0  0  0  0
   -0.9437    1.7246    3.9481 H   0  0  0  0  0  0  0  0  0  0  0  0
    0.6335    2.3369    3.3802 H   0  0  0  0  0  0  0  0  0  0  0  0
   -4.0202   -0.1222    3.7588 H   0  0  0  0  0  0  0  0  0  0  0  0
  1 27  1  0  0  0  0
  1 14  1  0  0  0  0
  2 11  1  0  0  0  0
  3  1  1  0  0  0  0
  4  3  1  0  0  0  0
  4 11  1  0  0  0  0
  5 10  1  0  0  0  0
  5  4  2  0  0  0  0
  6  5  1  0  0  0  0
  7  8  1  0  0  0  0
  7  6  2  0  0  0  0
  8  9  2  0  0  0  0
  9 18  1  0  0  0  0
  9 10  1  0  0  0  0
 10  2  2  0  0  0  0
 11 12  1  6  0  0  0
 12 20  1  0  0  0  0
 12 31  1  0  0  0  0
 12 19  1  0  0  0  0
 13  1  1  0  0  0  0
 13 21  1  0  0  0  0
 14 23  1  0  0  0  0
 14 25  1  0  0  0  0
 15  6  1  0  0  0  0
 16  7  1  0  0  0  0
 17  8  1  0  0  0  0
 22 13  1  0  0  0  0
 24 14  1  0  0  0  0
 26 13  1  0  0  0  0
 27 29  1  0  0  0  0
 27 28  1  0  0  0  0
 30 27  1  0  0  0  0
M  END
