1
 OpenBabel05122313113D

  9  8  0  0  0  0  0  0  0  0999 V2000
   -0.0810    1.9242    0.1447 C   0  0  0  0  0  1  0  0  0  0  0  0
   -0.1368    3.0587    0.5142 N   0  0  0  0  0  2  0  0  0  0  0  0
   -0.1844    4.4250    0.8697 C   0  0  0  0  0  0  0  0  0  0  0  0
    0.6666    4.9494    0.3783 H   0  0  0  0  0  0  0  0  0  0  0  0
   -0.0161    4.5168    1.9663 H   0  0  0  0  0  0  0  0  0  0  0  0
   -1.5085    5.0922    0.4854 C   0  0  0  0  0  0  0  0  0  0  0  0
   -1.6783    5.0310   -0.6074 H   0  0  0  0  0  0  0  0  0  0  0  0
   -1.4938    6.1596    0.7811 H   0  0  0  0  0  0  0  0  0  0  0  0
   -2.3591    4.5973    0.9933 H   0  0  0  0  0  0  0  0  0  0  0  0
  1  2  1  0  0  0  0
  2  3  1  0  0  0  0
  3  5  1  0  0  0  0
  4  3  1  0  0  0  0
  6  8  1  0  0  0  0
  6  3  1  0  0  0  0
  6  9  1  0  0  0  0
  7  6  1  0  0  0  0
M  END
