1
 OpenBabel05122313113D

 56 58  0  0  0  0  0  0  0  0999 V2000
    0.2595   -1.0109    0.5861 C   0  0  0  0  0  2  0  0  0  0  0  0
    0.7673   -2.2810    0.6860 N   0  0  0  0  0  0  0  0  0  0  0  0
   -0.2706   -3.2895    0.9464 C   0  0  0  0  0  0  0  0  0  0  0  0
    0.0685   -4.0117    1.7151 H   0  0  0  0  0  0  0  0  0  0  0  0
   -0.4957   -3.8624    0.0183 H   0  0  0  0  0  0  0  0  0  0  0  0
    2.0880   -2.7327    0.3738 C   0  0  0  0  0  0  0  0  0  0  0  0
    2.4181   -3.0495   -0.9655 C   0  0  0  0  0  0  0  0  0  0  0  0
    3.7222   -3.5014   -1.2404 C   0  0  0  0  0  0  0  0  0  0  0  0
    3.9933   -3.7338   -2.2829 H   0  0  0  0  0  0  0  0  0  0  0  0
    4.6870   -3.6470   -0.2271 C   0  0  0  0  0  0  0  0  0  0  0  0
    4.3145   -3.3406    1.0954 C   0  0  0  0  0  0  0  0  0  0  0  0
    5.0549   -3.4512    1.9041 H   0  0  0  0  0  0  0  0  0  0  0  0
    3.0232   -2.8916    1.4240 C   0  0  0  0  0  0  0  0  0  0  0  0
    1.4261   -2.8357   -2.0791 C   0  0  0  0  0  0  0  0  0  0  0  0
    1.8877   -3.0341   -3.0645 H   0  0  0  0  0  0  0  0  0  0  0  0
    1.0387   -1.7952   -2.0789 H   0  0  0  0  0  0  0  0  0  0  0  0
    0.5487   -3.5088   -1.9819 H   0  0  0  0  0  0  0  0  0  0  0  0
    2.6514   -2.5599    2.8429 C   0  0  0  0  0  0  0  0  0  0  0  0
    2.4283   -1.4761    2.9470 H   0  0  0  0  0  0  0  0  0  0  0  0
    3.4701   -2.8213    3.5396 H   0  0  0  0  0  0  0  0  0  0  0  0
    1.7397   -3.1045    3.1653 H   0  0  0  0  0  0  0  0  0  0  0  0
    6.0815   -4.1303   -0.5382 C   0  0  0  0  0  0  0  0  0  0  0  0
    6.2561   -4.2043   -1.6289 H   0  0  0  0  0  0  0  0  0  0  0  0
    6.2647   -5.1339   -0.0993 H   0  0  0  0  0  0  0  0  0  0  0  0
    6.8480   -3.4510   -0.1121 H   0  0  0  0  0  0  0  0  0  0  0  0
   -1.4500   -2.4350    1.3994 C   0  0  0  0  0  0  0  0  0  0  0  0
   -2.4168   -2.7922    1.0125 H   0  0  0  0  0  0  0  0  0  0  0  0
   -1.5045   -2.3529    2.5087 H   0  0  0  0  0  0  0  0  0  0  0  0
   -1.1038   -1.1211    0.8305 N   0  0  0  0  0  0  0  0  0  0  0  0
   -1.9417    0.0167    1.0314 C   0  0  0  0  0  0  0  0  0  0  0  0
   -1.4793    0.9755    1.9574 C   0  0  0  0  0  0  0  0  0  0  0  0
   -0.5524    0.7610    2.5117 H   0  0  0  0  0  0  0  0  0  0  0  0
   -2.1578    2.1730    2.1897 C   0  0  0  0  0  0  0  0  0  0  0  0
   -1.7507    2.8920    2.9174 H   0  0  0  0  0  0  0  0  0  0  0  0
   -3.3502    2.4522    1.5036 C   0  0  0  0  0  0  0  0  0  0  0  0
   -3.8393    1.4685    0.6276 C   0  0  0  0  0  0  0  0  0  0  0  0
   -4.7933    1.6726    0.1271 H   0  0  0  0  0  0  0  0  0  0  0  0
   -3.1802    0.2489    0.3658 C   0  0  0  0  0  0  0  0  0  0  0  0
   -4.0756    3.7595    1.6887 C   0  0  0  0  0  0  0  0  0  0  0  0
   -5.1254    3.7004    1.3423 H   0  0  0  0  0  0  0  0  0  0  0  0
   -3.5799    4.5682    1.1096 H   0  0  0  0  0  0  0  0  0  0  0  0
   -4.0765    4.0772    2.7507 H   0  0  0  0  0  0  0  0  0  0  0  0
   -3.9088   -0.7646   -0.5436 C   0  0  0  0  0  0  0  0  0  0  0  0
   -4.5419   -0.0652   -1.8169 C   0  0  0  0  0  0  0  0  0  0  0  0
   -3.6683    0.7909   -2.3746 F   0  0  0  0  0  0  0  0  0  0  0  0
   -4.8673   -0.9917   -2.7388 F   0  0  0  0  0  0  0  0  0  0  0  0
   -5.6770    0.6259   -1.5436 F   0  0  0  0  0  0  0  0  0  0  0  0
   -5.0687   -1.4397    0.2779 C   0  0  0  0  0  0  0  0  0  0  0  0
   -5.7912   -2.2703   -0.4931 F   0  0  0  0  0  0  0  0  0  0  0  0
   -5.9077   -0.5363    0.8190 F   0  0  0  0  0  0  0  0  0  0  0  0
   -4.5515   -2.1636    1.2965 F   0  0  0  0  0  0  0  0  0  0  0  0
   -3.1518   -1.8685   -0.9566 O   0  0  0  0  0  0  0  0  0  0  0  0
   -2.1484   -1.6809   -1.9619 C   0  0  0  0  0  0  0  0  0  0  0  0
   -2.6004   -1.6706   -2.9751 H   0  0  0  0  0  0  0  0  0  0  0  0
   -1.4816   -2.5575   -1.8812 H   0  0  0  0  0  0  0  0  0  0  0  0
   -1.5570   -0.7558   -1.8040 H   0  0  0  0  0  0  0  0  0  0  0  0
  1  2  1  0  0  0  0
  1 29  1  0  0  0  0
  2  3  1  0  0  0  0
  3 26  1  0  0  0  0
  3  4  1  0  0  0  0
  5  3  1  0  0  0  0
  6  2  1  0  0  0  0
  6 13  1  0  0  0  0
  7  6  2  0  0  0  0
  8  7  1  0  0  0  0
  8 10  2  0  0  0  0
  9  8  1  0  0  0  0
 10 11  1  0  0  0  0
 11 13  2  0  0  0  0
 11 12  1  0  0  0  0
 13 18  1  0  0  0  0
 14 16  1  0  0  0  0
 14 17  1  0  0  0  0
 14  7  1  0  0  0  0
 15 14  1  0  0  0  0
 18 19  1  0  0  0  0
 18 21  1  0  0  0  0
 18 20  1  0  0  0  0
 22 10  1  0  0  0  0
 22 25  1  0  0  0  0
 22 24  1  0  0  0  0
 23 22  1  0  0  0  0
 26 28  1  0  0  0  0
 27 26  1  0  0  0  0
 29 30  1  0  0  0  0
 29 26  1  0  0  0  0
 30 31  1  0  0  0  0
 31 33  2  0  0  0  0
 31 32  1  0  0  0  0
 33 34  1  0  0  0  0
 35 39  1  0  0  0  0
 35 33  1  0  0  0  0
 36 35  2  0  0  0  0
 37 36  1  0  0  0  0
 38 36  1  0  0  0  0
 38 30  2  0  0  0  0
 39 42  1  0  0  0  0
 40 39  1  0  0  0  0
 41 39  1  0  0  0  0
 43 48  1  0  0  0  0
 43 38  1  0  0  0  0
 44 47  1  0  0  0  0
 44 43  1  0  0  0  0
 45 44  1  0  0  0  0
 46 44  1  0  0  0  0
 48 50  1  0  0  0  0
 48 51  1  0  0  0  0
 49 48  1  0  0  0  0
 52 43  1  0  0  0  0
 53 55  1  0  0  0  0
 53 56  1  0  0  0  0
 53 52  1  0  0  0  0
 54 53  1  0  0  0  0
M  END
