5
 OpenBabel05122313113D

 36 37  0  0  0  0  0  0  0  0999 V2000
    5.9310    1.8912    0.4147 Br  0  0  0  0  0  0  0  0  0  0  0  0
   -0.8230    2.9763   -0.2417 N   0  0  0  0  0  0  0  0  0  0  0  0
    1.2853    2.7280   -0.0085 N   0  0  0  0  0  0  0  0  0  0  0  0
    1.1072    4.0783   -0.1274 N   0  0  0  0  0  0  0  0  0  0  0  0
    0.1417    2.0083   -0.0838 C   0  0  0  0  0  2  0  0  0  0  0  0
   -0.1912    4.2063   -0.2668 C   0  0  0  0  0  0  0  0  0  0  0  0
   -0.7242    5.1557   -0.3894 H   0  0  0  0  0  0  0  0  0  0  0  0
   -2.2473    2.7538   -0.2623 C   0  0  0  0  0  0  0  0  0  0  0  0
   -2.9837    3.0281    0.9116 C   0  0  0  0  0  0  0  0  0  0  0  0
   -4.3673    2.7744    0.8835 C   0  0  0  0  0  0  0  0  0  0  0  0
   -4.9574    2.9785    1.7910 H   0  0  0  0  0  0  0  0  0  0  0  0
   -5.0133    2.2687   -0.2590 C   0  0  0  0  0  0  0  0  0  0  0  0
   -4.2386    2.0302   -1.4111 C   0  0  0  0  0  0  0  0  0  0  0  0
   -4.7284    1.6504   -2.3218 H   0  0  0  0  0  0  0  0  0  0  0  0
   -2.8547    2.2775   -1.4470 C   0  0  0  0  0  0  0  0  0  0  0  0
   -2.3189    3.5615    2.1528 C   0  0  0  0  0  0  0  0  0  0  0  0
   -1.8714    4.5641    1.9897 H   0  0  0  0  0  0  0  0  0  0  0  0
   -3.0479    3.6506    2.9797 H   0  0  0  0  0  0  0  0  0  0  0  0
   -1.5077    2.8787    2.4818 H   0  0  0  0  0  0  0  0  0  0  0  0
   -6.4948    1.9910   -0.2615 C   0  0  0  0  0  0  0  0  0  0  0  0
   -6.9768    2.3327    0.6746 H   0  0  0  0  0  0  0  0  0  0  0  0
   -6.9965    2.4971   -1.1116 H   0  0  0  0  0  0  0  0  0  0  0  0
   -6.6930    0.9036   -0.3735 H   0  0  0  0  0  0  0  0  0  0  0  0
   -2.0593    2.0645   -2.7051 C   0  0  0  0  0  0  0  0  0  0  0  0
   -1.3246    1.2373   -2.5994 H   0  0  0  0  0  0  0  0  0  0  0  0
   -2.7245    1.8298   -3.5569 H   0  0  0  0  0  0  0  0  0  0  0  0
   -1.4678    2.9661   -2.9672 H   0  0  0  0  0  0  0  0  0  0  0  0
    2.6188    2.1679    0.1725 C   0  0  0  0  0  0  0  0  0  0  0  0
    3.1161    2.7212    0.9929 H   0  0  0  0  0  0  0  0  0  0  0  0
    2.4601    1.1211    0.5021 H   0  0  0  0  0  0  0  0  0  0  0  0
    3.4522    2.2026   -1.1089 C   0  0  0  0  0  0  0  0  0  0  0  0
    3.7105    3.2491   -1.3706 H   0  0  0  0  0  0  0  0  0  0  0  0
    2.8304    1.7831   -1.9313 H   0  0  0  0  0  0  0  0  0  0  0  0
    4.6905    1.3331   -1.0261 C   0  0  0  0  0  0  0  0  0  0  0  0
    4.4389    0.2777   -0.8047 H   0  0  0  0  0  0  0  0  0  0  0  0
    5.2880    1.3787   -1.9540 H   0  0  0  0  0  0  0  0  0  0  0  0
  2  5  1  0  0  0  0
  3 28  1  0  0  0  0
  4  3  1  0  0  0  0
  5  3  1  0  0  0  0
  6  2  1  0  0  0  0
  6  4  2  0  0  0  0
  7  6  1  0  0  0  0
  8  2  1  0  0  0  0
  8  9  1  0  0  0  0
  9 16  1  0  0  0  0
 10  9  2  0  0  0  0
 10 11  1  0  0  0  0
 12 10  1  0  0  0  0
 13 12  2  0  0  0  0
 14 13  1  0  0  0  0
 15 13  1  0  0  0  0
 15  8  2  0  0  0  0
 16 19  1  0  0  0  0
 16 18  1  0  0  0  0
 17 16  1  0  0  0  0
 20 12  1  0  0  0  0
 20 21  1  0  0  0  0
 22 20  1  0  0  0  0
 23 20  1  0  0  0  0
 24 25  1  0  0  0  0
 24 15  1  0  0  0  0
 26 24  1  0  0  0  0
 27 24  1  0  0  0  0
 28 30  1  0  0  0  0
 28 29  1  0  0  0  0
 31 34  1  0  0  0  0
 31 28  1  0  0  0  0
 32 31  1  0  0  0  0
 33 31  1  0  0  0  0
 34 35  1  0  0  0  0
 34  1  1  0  0  0  0
 36 34  1  0  0  0  0
M  END
