6
 OpenBabel05122313113D

 53 55  0  0  0  0  0  0  0  0999 V2000
   -0.8406   -1.2579   -2.3874 O   0  0  0  0  0  0  0  0  0  0  0  0
   -0.7670   -2.0328   -1.1149 S   0  0  0  0  0  0  0  0  0  0  0  0
    0.7134    3.2153   -0.5725 Si  0  0  0  0  0  0  0  0  0  0  0  0
    0.4587    1.4968   -0.3174 N   0  0  0  0  0  2  0  0  0  0  0  0
   -0.7154    0.6564    0.4147 P   0  0  0  0  0  4  0  0  0  0  0  0
   -0.0873   -1.0220    0.1945 C   0  0  0  0  0  3  0  0  0  0  0  0
   -0.8933    0.8170    2.2338 C   0  0  0  0  0  0  0  0  0  0  0  0
   -0.0618   -3.3442   -1.0790 O   0  0  0  0  0  0  0  0  0  0  0  0
   -0.2054    1.8318    2.9214 C   0  0  0  0  0  0  0  0  0  0  0  0
    0.4527    2.5113    2.3607 H   0  0  0  0  0  0  0  0  0  0  0  0
   -0.3350    1.9494    4.3130 C   0  0  0  0  0  0  0  0  0  0  0  0
    0.2107    2.7416    4.8475 H   0  0  0  0  0  0  0  0  0  0  0  0
   -1.8260    0.0277    4.3410 C   0  0  0  0  0  0  0  0  0  0  0  0
   -2.4544   -0.6849    4.8967 H   0  0  0  0  0  0  0  0  0  0  0  0
   -1.6974   -0.0952    2.9490 C   0  0  0  0  0  0  0  0  0  0  0  0
   -2.2192   -0.9092    2.4198 H   0  0  0  0  0  0  0  0  0  0  0  0
    0.9828    3.5798   -2.4099 C   0  0  0  0  0  0  0  0  0  0  0  0
    1.9284    3.1411   -2.7852 H   0  0  0  0  0  0  0  0  0  0  0  0
    1.0276    4.6752   -2.5834 H   0  0  0  0  0  0  0  0  0  0  0  0
    0.1526    3.1695   -3.0198 H   0  0  0  0  0  0  0  0  0  0  0  0
   -3.5341   -1.8420   -1.3623 C   0  0  0  0  0  0  0  0  0  0  0  0
   -3.3072   -1.2674   -2.2707 H   0  0  0  0  0  0  0  0  0  0  0  0
   -2.3562    1.0913   -0.2853 C   0  0  0  0  0  0  0  0  0  0  0  0
   -3.5387    1.1852    0.4740 C   0  0  0  0  0  0  0  0  0  0  0  0
   -3.5173    1.0065    1.5583 H   0  0  0  0  0  0  0  0  0  0  0  0
   -4.7489    1.5220   -0.1502 C   0  0  0  0  0  0  0  0  0  0  0  0
   -5.6687    1.5958    0.4495 H   0  0  0  0  0  0  0  0  0  0  0  0
   -4.7853    1.7717   -1.5312 C   0  0  0  0  0  0  0  0  0  0  0  0
   -5.7360    2.0392   -2.0176 H   0  0  0  0  0  0  0  0  0  0  0  0
   -3.6062    1.6863   -2.2905 C   0  0  0  0  0  0  0  0  0  0  0  0
   -3.6303    1.8826   -3.3732 H   0  0  0  0  0  0  0  0  0  0  0  0
   -2.3943    1.3473   -1.6738 C   0  0  0  0  0  0  0  0  0  0  0  0
   -1.4691    1.2590   -2.2605 H   0  0  0  0  0  0  0  0  0  0  0  0
   -2.4771   -2.3600   -0.6039 C   0  0  0  0  0  0  0  0  0  0  0  0
   -2.7082   -3.1208    0.5545 C   0  0  0  0  0  0  0  0  0  0  0  0
   -1.8603   -3.5570    1.1038 H   0  0  0  0  0  0  0  0  0  0  0  0
   -4.0283   -3.3251    0.9810 C   0  0  0  0  0  0  0  0  0  0  0  0
   -4.2248   -3.9163    1.8884 H   0  0  0  0  0  0  0  0  0  0  0  0
   -5.0988   -2.7899    0.2422 C   0  0  0  0  0  0  0  0  0  0  0  0
   -6.1332   -2.9525    0.5812 H   0  0  0  0  0  0  0  0  0  0  0  0
   -4.8517   -2.0600   -0.9312 C   0  0  0  0  0  0  0  0  0  0  0  0
   -5.6891   -1.6490   -1.5148 H   0  0  0  0  0  0  0  0  0  0  0  0
    2.2444    3.7832    0.3845 C   0  0  0  0  0  0  0  0  0  0  0  0
    2.0972    3.7015    1.4806 H   0  0  0  0  0  0  0  0  0  0  0  0
    2.4959    4.8382    0.1502 H   0  0  0  0  0  0  0  0  0  0  0  0
    3.1166    3.1497    0.1267 H   0  0  0  0  0  0  0  0  0  0  0  0
   -0.8003    4.2053   -0.0015 C   0  0  0  0  0  0  0  0  0  0  0  0
   -1.6886    3.9787   -0.6247 H   0  0  0  0  0  0  0  0  0  0  0  0
   -0.5915    5.2922   -0.0875 H   0  0  0  0  0  0  0  0  0  0  0  0
   -1.0683    3.9955    1.0539 H   0  0  0  0  0  0  0  0  0  0  0  0
   -1.1483    1.0513    5.0232 C   0  0  0  0  0  0  0  0  0  0  0  0
   -1.2473    1.1435    6.1154 H   0  0  0  0  0  0  0  0  0  0  0  0
   -0.1484   -1.6274    1.1176 H   0  0  0  0  0  0  0  0  0  0  0  0
  1  2  2  0  0  0  0
  2  8  2  0  0  0  0
  2 34  1  0  0  0  0
  2  6  1  0  0  0  0
  3  4  1  0  0  0  0
  3 47  1  0  0  0  0
  3 43  1  0  0  0  0
  4  5  1  0  0  0  0
  5  7  1  0  0  0  0
  6  5  1  0  0  0  0
  6 53  1  0  0  0  0
  7  9  2  0  0  0  0
  7 15  1  0  0  0  0
  9 11  1  0  0  0  0
 10  9  1  0  0  0  0
 11 12  1  0  0  0  0
 11 51  2  0  0  0  0
 13 14  1  0  0  0  0
 13 51  1  0  0  0  0
 15 13  2  0  0  0  0
 16 15  1  0  0  0  0
 17  3  1  0  0  0  0
 18 17  1  0  0  0  0
 19 17  1  0  0  0  0
 20 17  1  0  0  0  0
 21 41  2  0  0  0  0
 21 34  1  0  0  0  0
 22 21  1  0  0  0  0
 23  5  1  0  0  0  0
 23 24  1  0  0  0  0
 24 25  1  0  0  0  0
 26 27  1  0  0  0  0
 26 24  2  0  0  0  0
 28 26  1  0  0  0  0
 29 28  1  0  0  0  0
 30 32  1  0  0  0  0
 30 28  2  0  0  0  0
 31 30  1  0  0  0  0
 32 23  2  0  0  0  0
 33 32  1  0  0  0  0
 34 35  2  0  0  0  0
 35 37  1  0  0  0  0
 35 36  1  0  0  0  0
 37 38  1  0  0  0  0
 39 40  1  0  0  0  0
 39 37  2  0  0  0  0
 41 39  1  0  0  0  0
 42 41  1  0  0  0  0
 43 44  1  0  0  0  0
 45 43  1  0  0  0  0
 46 43  1  0  0  0  0
 47 50  1  0  0  0  0
 48 47  1  0  0  0  0
 49 47  1  0  0  0  0
 51 52  1  0  0  0  0
M  END
