17
 OpenBabel05122313113D

 44 45  0  0  1  0  0  0  0  0999 V2000
    0.4360    1.0306   -1.0372 C   0  0  0  0  0  0  0  0  0  0  0  0
    0.6300    2.2545   -1.1671 O   0  0  0  0  0  0  0  0  0  0  0  0
    1.4367   -0.0095   -0.6452 C   0  0  0  0  0  0  0  0  0  0  0  0
    0.8066   -1.3017   -0.8175 C   0  0  0  0  0  0  0  0  0  0  0  0
    1.4596   -2.6615   -0.9188 C   0  0  0  0  0  0  0  0  0  0  0  0
    2.3235   -2.5838   -1.6123 H   0  0  0  0  0  0  0  0  0  0  0  0
    1.8916   -2.9597    0.0579 H   0  0  0  0  0  0  0  0  0  0  0  0
    0.4799   -3.7366   -1.4229 C   0  0  0  0  0  0  0  0  0  0  0  0
    0.3916   -3.6665   -2.5300 H   0  0  0  0  0  0  0  0  0  0  0  0
    0.8888   -4.7450   -1.2079 H   0  0  0  0  0  0  0  0  0  0  0  0
   -0.9194   -3.5752   -0.8165 C   0  0  0  0  0  0  0  0  0  0  0  0
   -0.8505   -3.5977    0.2933 H   0  0  0  0  0  0  0  0  0  0  0  0
   -1.5718   -4.4208   -1.1173 H   0  0  0  0  0  0  0  0  0  0  0  0
   -1.5477   -2.2460   -1.2557 C   0  0  0  0  0  0  0  0  0  0  0  0
   -1.7848   -2.2873   -2.3439 H   0  0  0  0  0  0  0  0  0  0  0  0
   -2.5136   -2.0709   -0.7421 H   0  0  0  0  0  0  0  0  0  0  0  0
   -0.6077   -1.0968   -1.0203 C   0  0  2  0  0  3  0  0  0  0  0  0
   -0.8773    0.3235   -1.0232 C   0  0  2  0  0  3  0  0  0  0  0  0
   -2.4526    1.3122   -1.3098 Si  0  0  0  0  0  0  0  0  0  0  0  0
   -2.6188    2.6737   -0.0046 C   0  0  0  0  0  0  0  0  0  0  0  0
   -2.6885    2.2484    1.0168 H   0  0  0  0  0  0  0  0  0  0  0  0
   -3.5173    3.2968   -0.1935 H   0  0  0  0  0  0  0  0  0  0  0  0
   -1.7206    3.3207   -0.0558 H   0  0  0  0  0  0  0  0  0  0  0  0
   -4.0154    0.2311   -1.2557 C   0  0  0  0  0  0  0  0  0  0  0  0
   -4.1473   -0.2584   -0.2695 H   0  0  0  0  0  0  0  0  0  0  0  0
   -4.0015   -0.5600   -2.0321 H   0  0  0  0  0  0  0  0  0  0  0  0
   -4.9082    0.8652   -1.4389 H   0  0  0  0  0  0  0  0  0  0  0  0
   -2.3115    2.1160   -3.0174 C   0  0  0  0  0  0  0  0  0  0  0  0
   -1.3708    2.7022   -3.0505 H   0  0  0  0  0  0  0  0  0  0  0  0
   -3.1647    2.7946   -3.2252 H   0  0  0  0  0  0  0  0  0  0  0  0
   -2.2715    1.3528   -3.8214 H   0  0  0  0  0  0  0  0  0  0  0  0
    3.2489    0.4462   -0.3937 Si  0  0  0  0  0  0  0  0  0  0  0  0
    4.2481   -0.9878    0.3408 C   0  0  0  0  0  0  0  0  0  0  0  0
    5.2843   -0.6471    0.5479 H   0  0  0  0  0  0  0  0  0  0  0  0
    4.3131   -1.8522   -0.3498 H   0  0  0  0  0  0  0  0  0  0  0  0
    3.8101   -1.3428    1.2950 H   0  0  0  0  0  0  0  0  0  0  0  0
    3.3737    1.9419    0.7576 C   0  0  0  0  0  0  0  0  0  0  0  0
    4.4175    2.3140    0.8113 H   0  0  0  0  0  0  0  0  0  0  0  0
    3.0394    1.6823    1.7822 H   0  0  0  0  0  0  0  0  0  0  0  0
    2.7222    2.7438    0.3573 H   0  0  0  0  0  0  0  0  0  0  0  0
    3.9434    0.9177   -2.0929 C   0  0  0  0  0  0  0  0  0  0  0  0
    4.9976    1.2577   -2.0241 H   0  0  0  0  0  0  0  0  0  0  0  0
    3.3343    1.7412   -2.5182 H   0  0  0  0  0  0  0  0  0  0  0  0
    3.9031    0.0614   -2.7972 H   0  0  0  0  0  0  0  0  0  0  0  0
  1 18  1  0  0  0  0
  1  3  1  0  0  0  0
  2  1  2  0  0  0  0
  3 32  1  0  0  0  0
  4  3  2  0  0  0  0
  5  4  1  0  0  0  0
  5  7  1  0  0  0  0
  6  5  1  0  0  0  0
  8 10  1  0  0  0  0
  8  5  1  0  0  0  0
  8 11  1  0  0  0  0
  9  8  1  0  0  0  0
 11 12  1  0  0  0  0
 13 11  1  0  0  0  0
 14 17  1  0  0  0  0
 14 11  1  0  0  0  0
 14 16  1  0  0  0  0
 15 14  1  0  0  0  0
 17  4  1  6  0  0  0
 18 19  1  6  0  0  0
 18 17  1  0  0  0  0
 19 24  1  0  0  0  0
 19 20  1  0  0  0  0
 20 21  1  0  0  0  0
 22 20  1  0  0  0  0
 23 20  1  0  0  0  0
 24 25  1  0  0  0  0
 26 24  1  0  0  0  0
 27 24  1  0  0  0  0
 28 19  1  0  0  0  0
 29 28  1  0  0  0  0
 30 28  1  0  0  0  0
 31 28  1  0  0  0  0
 32 33  1  0  0  0  0
 32 37  1  0  0  0  0
 33 34  1  0  0  0  0
 33 36  1  0  0  0  0
 35 33  1  0  0  0  0
 37 38  1  0  0  0  0
 37 39  1  0  0  0  0
 40 37  1  0  0  0  0
 41 42  1  0  0  0  0
 41 32  1  0  0  0  0
 43 41  1  0  0  0  0
 44 41  1  0  0  0  0
M  END
