2
 OpenBabel05122313113D

 26 27  0  0  1  0  0  0  0  0999 V2000
   -0.4741   -0.1291    1.4672 C   0  0  0  0  0  3  0  0  0  0  0  0
   -0.8058    0.6087    0.3276 C   0  0  1  0  0  3  0  0  0  0  0  0
   -1.9674    0.6546   -0.6026 C   0  0  2  0  0  0  0  0  0  0  0  0
   -1.4779    1.9339    0.1416 C   0  0  0  0  0  0  0  0  0  0  0  0
   -0.8818    3.0425   -0.7073 C   0  0  0  0  0  0  0  0  0  0  0  0
   -2.2498    2.4434    1.3482 C   0  0  0  0  0  0  0  0  0  0  0  0
   -3.2470   -0.0666   -0.3063 C   0  0  0  0  0  0  0  0  0  0  0  0
   -3.2486   -1.4577   -0.0721 C   0  0  0  0  0  0  0  0  0  0  0  0
   -4.4480   -2.1416    0.1773 C   0  0  0  0  0  0  0  0  0  0  0  0
   -5.6662   -1.4444    0.1954 C   0  0  0  0  0  0  0  0  0  0  0  0
   -5.6784   -0.0617   -0.0479 C   0  0  0  0  0  0  0  0  0  0  0  0
   -4.4790    0.6203   -0.3004 C   0  0  0  0  0  0  0  0  0  0  0  0
   -0.1993    0.4059    2.3909 H   0  0  0  0  0  0  0  0  0  0  0  0
   -0.8333   -1.1620    1.6009 H   0  0  0  0  0  0  0  0  0  0  0  0
   -1.7266    0.6988   -1.6811 H   0  0  0  0  0  0  0  0  0  0  0  0
   -0.3160    2.6549   -1.5735 H   0  0  0  0  0  0  0  0  0  0  0  0
   -0.1937    3.6680   -0.1026 H   0  0  0  0  0  0  0  0  0  0  0  0
   -1.6841    3.7042   -1.0943 H   0  0  0  0  0  0  0  0  0  0  0  0
   -2.7503    1.6221    1.8954 H   0  0  0  0  0  0  0  0  0  0  0  0
   -3.0238    3.1783    1.0438 H   0  0  0  0  0  0  0  0  0  0  0  0
   -1.5625    2.9595    2.0511 H   0  0  0  0  0  0  0  0  0  0  0  0
   -2.2990   -2.0132   -0.1052 H   0  0  0  0  0  0  0  0  0  0  0  0
   -4.4305   -3.2275    0.3564 H   0  0  0  0  0  0  0  0  0  0  0  0
   -6.6072   -1.9795    0.3939 H   0  0  0  0  0  0  0  0  0  0  0  0
   -6.6305    0.4908   -0.0425 H   0  0  0  0  0  0  0  0  0  0  0  0
   -4.4932    1.7031   -0.4972 H   0  0  0  0  0  0  0  0  0  0  0  0
  1 14  1  0  0  0  0
  1 13  1  0  0  0  0
  2  1  1  1  0  0  0
  3 15  1  6  0  0  0
  3  7  1  0  0  0  0
  3  4  1  0  0  0  0
  3  2  1  0  0  0  0
  4  2  1  0  0  0  0
  4  6  1  0  0  0  0
  5 17  1  0  0  0  0
  5  4  1  0  0  0  0
  6 19  1  0  0  0  0
  6 21  1  0  0  0  0
  7 12  2  0  0  0  0
  7  8  1  0  0  0  0
  8  9  2  0  0  0  0
  9 10  1  0  0  0  0
  9 23  1  0  0  0  0
 10 24  1  0  0  0  0
 11 25  1  0  0  0  0
 11 10  2  0  0  0  0
 12 11  1  0  0  0  0
 16  5  1  0  0  0  0
 18  5  1  0  0  0  0
 20  6  1  0  0  0  0
 22  8  1  0  0  0  0
 26 12  1  0  0  0  0
M  END
