3
 OpenBabel05122313113D

 33 34  0  0  1  0  0  0  0  0999 V2000
   -4.1862   -2.0650    1.2214 H   0  0  0  0  0  0  0  0  0  0  0  0
   -5.5886   -2.6971   -0.7582 H   0  0  0  0  0  0  0  0  0  0  0  0
    0.4730   -0.0931    0.3960 C   0  0  0  0  0  2  0  0  0  0  0  0
    1.4442   -2.0824    1.9810 H   0  0  0  0  0  0  0  0  0  0  0  0
    1.7106   -0.8886    0.1845 C   0  0  0  0  0  0  0  0  0  0  0  0
    2.0760   -1.9092    1.0974 C   0  0  0  0  0  0  0  0  0  0  0  0
    3.2304   -2.6707    0.9038 C   0  0  0  0  0  0  0  0  0  0  0  0
    4.0574   -2.4684   -0.2222 C   0  0  0  0  0  0  0  0  0  0  0  0
    3.5005   -3.4440    1.6404 H   0  0  0  0  0  0  0  0  0  0  0  0
    5.3175   -3.2694   -0.4161 C   0  0  0  0  0  0  0  0  0  0  0  0
    3.6797   -1.4693   -1.1436 C   0  0  0  0  0  0  0  0  0  0  0  0
   -0.8207   -1.3199   -1.4151 H   0  0  0  0  0  0  0  0  0  0  0  0
    2.5422   -0.6828   -0.9398 C   0  0  0  0  0  0  0  0  0  0  0  0
   -2.1212   -1.1764    4.4102 H   0  0  0  0  0  0  0  0  0  0  0  0
   -1.2935    0.1387    3.4694 H   0  0  0  0  0  0  0  0  0  0  0  0
   -0.5050   -1.4720    3.6419 H   0  0  0  0  0  0  0  0  0  0  0  0
   -1.4815   -0.9525    3.5385 C   0  0  0  0  0  0  0  0  0  0  0  0
   -1.6094   -1.2271    1.1935 C   0  0  2  0  0  3  0  0  0  0  0  0
   -2.4197   -1.6464    0.0306 C   0  0  0  0  0  0  0  0  0  0  0  0
   -2.2191   -1.9126   -3.3830 H   0  0  0  0  0  0  0  0  0  0  0  0
   -1.8694   -1.6127   -1.2685 C   0  0  0  0  0  0  0  0  0  0  0  0
   -4.6106   -2.6123   -3.0653 H   0  0  0  0  0  0  0  0  0  0  0  0
   -2.6560   -1.9542   -2.3744 C   0  0  0  0  0  0  0  0  0  0  0  0
   -3.9931   -2.3446   -2.1946 C   0  0  0  0  0  0  0  0  0  0  0  0
   -4.5409   -2.3931   -0.9019 C   0  0  0  0  0  0  0  0  0  0  0  0
   -3.7624   -2.0455    0.2085 C   0  0  0  0  0  0  0  0  0  0  0  0
    4.2965   -1.2996   -2.0399 H   0  0  0  0  0  0  0  0  0  0  0  0
    2.2749    0.0832   -1.6785 H   0  0  0  0  0  0  0  0  0  0  0  0
    5.2410   -4.2724    0.0477 H   0  0  0  0  0  0  0  0  0  0  0  0
    6.1843   -2.7569    0.0548 H   0  0  0  0  0  0  0  0  0  0  0  0
    5.5600   -3.3963   -1.4894 H   0  0  0  0  0  0  0  0  0  0  0  0
   -2.1899   -1.4308    2.3938 O   0  0  0  0  0  0  0  0  0  0  0  0
   -0.4431   -0.7068    1.0954 N   0  0  0  0  0  2  0  0  0  0  0  0
  3 33  1  0  0  0  0
  5  3  1  0  0  0  0
  5  6  1  0  0  0  0
  6  4  1  0  0  0  0
  7  6  2  0  0  0  0
  7  9  1  0  0  0  0
  8  7  1  0  0  0  0
 10  8  1  0  0  0  0
 10 29  1  0  0  0  0
 10 30  1  0  0  0  0
 11 13  1  0  0  0  0
 11  8  2  0  0  0  0
 12 21  1  0  0  0  0
 13  5  2  0  0  0  0
 15 17  1  0  0  0  0
 17 16  1  0  0  0  0
 17 14  1  0  0  0  0
 18 33  1  6  0  0  0
 18 32  1  0  0  0  0
 19 26  1  0  0  0  0
 19 18  1  0  0  0  0
 20 23  1  0  0  0  0
 21 19  2  0  0  0  0
 22 24  1  0  0  0  0
 23 24  2  0  0  0  0
 23 21  1  0  0  0  0
 24 25  1  0  0  0  0
 25  2  1  0  0  0  0
 25 26  2  0  0  0  0
 26  1  1  0  0  0  0
 27 11  1  0  0  0  0
 28 13  1  0  0  0  0
 31 10  1  0  0  0  0
 32 17  1  0  0  0  0
M  END
