3
 OpenBabel05122313113D

 26 26  0  0  1  0  0  0  0  0999 V2000
   -2.1678    2.2092   -0.9352 O   0  0  0  0  0  0  0  0  0  0  0  0
   -0.6393    1.1529    0.4128 N   0  0  0  0  0  2  0  0  0  0  0  0
    0.4841    0.7570    0.8977 C   0  0  0  0  0  2  0  0  0  0  0  0
   -4.2421    1.0680   -1.2929 H   0  0  0  0  0  0  0  0  0  0  0  0
    1.1132    0.2813    2.8628 H   0  0  0  0  0  0  0  0  0  0  0  0
    1.6963    1.8199    2.2706 H   0  0  0  0  0  0  0  0  0  0  0  0
   -1.7788    1.1707   -0.1679 C   0  0  1  0  0  3  0  0  0  0  0  0
   -0.0251    2.1612    4.1039 H   0  0  0  0  0  0  0  0  0  0  0  0
   -1.2499    1.2757    3.1420 H   0  0  0  0  0  0  0  0  0  0  0  0
   -0.6324    2.8512    2.5673 H   0  0  0  0  0  0  0  0  0  0  0  0
   -1.7264    4.0140   -1.7612 H   0  0  0  0  0  0  0  0  0  0  0  0
   -0.3063    2.8924   -1.6407 H   0  0  0  0  0  0  0  0  0  0  0  0
   -0.9287    3.7132   -0.1598 H   0  0  0  0  0  0  0  0  0  0  0  0
   -4.0159    0.1758   -0.6937 C   0  0  0  0  0  0  0  0  0  0  0  0
   -5.9109   -0.7926   -1.1018 H   0  0  0  0  0  0  0  0  0  0  0  0
    0.7792    1.1931    2.3229 C   0  0  0  0  0  0  0  0  0  0  0  0
   -1.5007   -1.1447    1.2430 H   0  0  0  0  0  0  0  0  0  0  0  0
   -5.3666   -2.8305    0.2531 H   0  0  0  0  0  0  0  0  0  0  0  0
   -3.1496   -2.9986    1.4207 H   0  0  0  0  0  0  0  0  0  0  0  0
   -0.3417    1.9082    3.0732 C   0  0  0  0  0  0  0  0  0  0  0  0
   -1.2202    3.2615   -1.1318 C   0  0  0  0  0  0  0  0  0  0  0  0
   -2.7706    0.0835   -0.0355 C   0  0  0  0  0  0  0  0  0  0  0  0
   -4.9424   -0.8687   -0.5853 C   0  0  0  0  0  0  0  0  0  0  0  0
   -2.4693   -1.0636    0.7304 C   0  0  0  0  0  0  0  0  0  0  0  0
   -4.6371   -2.0104    0.1734 C   0  0  0  0  0  0  0  0  0  0  0  0
   -3.3980   -2.1051    0.8290 C   0  0  0  0  0  0  0  0  0  0  0  0
  2  3  1  0  0  0  0
  3 16  1  0  0  0  0
  4 14  1  0  0  0  0
  6 16  1  0  0  0  0
  7  1  1  1  0  0  0
  7 22  1  0  0  0  0
  7  2  1  0  0  0  0
 10 20  1  0  0  0  0
 11 21  1  0  0  0  0
 12 21  1  0  0  0  0
 14 23  2  0  0  0  0
 14 22  1  0  0  0  0
 15 23  1  0  0  0  0
 16  5  1  0  0  0  0
 16 20  1  0  0  0  0
 20  9  1  0  0  0  0
 20  8  1  0  0  0  0
 21  1  1  0  0  0  0
 21 13  1  0  0  0  0
 22 24  2  0  0  0  0
 23 25  1  0  0  0  0
 24 26  1  0  0  0  0
 24 17  1  0  0  0  0
 25 18  1  0  0  0  0
 25 26  2  0  0  0  0
 26 19  1  0  0  0  0
M  END
