10
 OpenBabel05122313113D

 49 50  0  0  1  0  0  0  0  0999 V2000
   -4.2443    1.2879   -1.4308 O   0  0  0  0  0  0  0  0  0  0  0  0
   -4.8576   -0.8985   -1.2904 O   0  0  0  0  0  0  0  0  0  0  0  0
    1.3481    2.3567   -1.0534 O   0  0  0  0  0  0  0  0  0  0  0  0
    0.7359    2.1271    1.2355 O   0  0  0  0  0  0  0  0  0  0  0  0
    2.9161    1.1024   -2.0177 O   0  0  0  0  0  0  0  0  0  0  0  0
    1.3739    0.3895    2.4594 O   0  0  0  0  0  0  0  0  0  0  0  0
   -5.6321    1.6378   -1.4460 C   0  0  0  0  0  0  0  0  0  0  0  0
   -3.9865   -0.0442   -1.3367 C   0  0  0  0  0  0  0  0  0  0  0  0
   -2.5255   -0.2880   -1.2786 C   0  0  0  0  0  3  0  0  0  0  0  0
   -2.0404   -1.6354   -1.3926 C   0  0  0  0  0  3  0  0  0  0  0  0
   -0.6771   -1.8658   -1.0550 C   0  0  0  0  0  3  0  0  0  0  0  0
    0.1066   -0.7430   -0.6304 C   0  0  0  0  0  3  0  0  0  0  0  0
    1.5463   -0.9324   -0.1790 C   0  0  2  0  0  0  0  0  0  0  0  0
    2.2380    0.4273    0.2092 C   0  0  0  0  0  0  0  0  0  0  0  0
    3.6804    0.1278    0.6851 C   0  0  0  0  0  0  0  0  0  0  0  0
    4.4543   -0.9087   -0.0960 C   0  0  0  0  0  0  0  0  0  0  0  0
    3.8553   -1.7498   -0.9757 C   0  0  0  0  0  0  0  0  0  0  0  0
    2.3716   -1.6789   -1.2400 C   0  0  0  0  0  0  0  0  0  0  0  0
    2.2501    1.3208   -1.0328 C   0  0  0  0  0  0  0  0  0  0  0  0
    1.0306    3.0424    0.1657 C   0  0  0  0  0  0  0  0  0  0  0  0
    1.4419    0.9783    1.4034 C   0  0  0  0  0  0  0  0  0  0  0  0
    4.5705   -2.7768   -1.8117 C   0  0  0  0  0  0  0  0  0  0  0  0
    5.9257   -0.8959    0.2235 C   0  0  0  0  0  0  0  0  0  0  0  0
   -0.2436    3.8242   -0.0964 C   0  0  0  0  0  0  0  0  0  0  0  0
    2.2178    3.9103    0.5790 C   0  0  0  0  0  0  0  0  0  0  0  0
   -6.1448    1.1877   -2.3202 H   0  0  0  0  0  0  0  0  0  0  0  0
   -5.6709    2.7402   -1.5021 H   0  0  0  0  0  0  0  0  0  0  0  0
   -6.1394    1.2785   -0.5277 H   0  0  0  0  0  0  0  0  0  0  0  0
   -1.9035    0.5620   -1.5975 H   0  0  0  0  0  0  0  0  0  0  0  0
   -2.7310   -2.4594   -1.6276 H   0  0  0  0  0  0  0  0  0  0  0  0
   -0.2908   -2.8963   -1.0161 H   0  0  0  0  0  0  0  0  0  0  0  0
   -0.0778    0.2122   -1.1503 H   0  0  0  0  0  0  0  0  0  0  0  0
    1.5834   -1.5291    0.7558 H   0  0  0  0  0  0  0  0  0  0  0  0
    4.2620    1.0772    0.6970 H   0  0  0  0  0  0  0  0  0  0  0  0
    3.6115   -0.1916    1.7480 H   0  0  0  0  0  0  0  0  0  0  0  0
    1.9727   -2.7141   -1.3142 H   0  0  0  0  0  0  0  0  0  0  0  0
    2.2056   -1.2243   -2.2428 H   0  0  0  0  0  0  0  0  0  0  0  0
    5.6660   -2.7805   -1.6701 H   0  0  0  0  0  0  0  0  0  0  0  0
    4.1947   -3.8008   -1.5949 H   0  0  0  0  0  0  0  0  0  0  0  0
    4.3733   -2.5965   -2.8912 H   0  0  0  0  0  0  0  0  0  0  0  0
    6.0888   -0.9321    1.3227 H   0  0  0  0  0  0  0  0  0  0  0  0
    6.3953    0.0490   -0.1293 H   0  0  0  0  0  0  0  0  0  0  0  0
    6.4825   -1.7374   -0.2258 H   0  0  0  0  0  0  0  0  0  0  0  0
   -1.0496    3.1340   -0.4080 H   0  0  0  0  0  0  0  0  0  0  0  0
   -0.0697    4.5660   -0.8979 H   0  0  0  0  0  0  0  0  0  0  0  0
   -0.5618    4.3428    0.8267 H   0  0  0  0  0  0  0  0  0  0  0  0
    2.4568    4.6347   -0.2223 H   0  0  0  0  0  0  0  0  0  0  0  0
    1.9819    4.4580    1.5107 H   0  0  0  0  0  0  0  0  0  0  0  0
    3.1133    3.2819    0.7607 H   0  0  0  0  0  0  0  0  0  0  0  0
  1  8  1  0  0  0  0
  3 19  1  0  0  0  0
  3 20  1  0  0  0  0
  4 21  1  0  0  0  0
  5 19  2  0  0  0  0
  7  1  1  0  0  0  0
  7 28  1  0  0  0  0
  8  2  2  0  0  0  0
  8  9  1  0  0  0  0
 10  9  1  0  0  0  0
 10 11  1  0  0  0  0
 11 31  1  0  0  0  0
 11 12  1  0  0  0  0
 12 13  1  0  0  0  0
 13 14  1  0  0  0  0
 13 33  1  1  0  0  0
 14 15  1  0  0  0  0
 14 21  1  0  0  0  0
 15 34  1  0  0  0  0
 15 35  1  0  0  0  0
 16 23  1  0  0  0  0
 16 15  1  0  0  0  0
 17 16  2  0  0  0  0
 18 17  1  0  0  0  0
 18 13  1  0  0  0  0
 19 14  1  0  0  0  0
 20 25  1  0  0  0  0
 20  4  1  0  0  0  0
 21  6  2  0  0  0  0
 22 38  1  0  0  0  0
 22 39  1  0  0  0  0
 22 17  1  0  0  0  0
 23 41  1  0  0  0  0
 24 20  1  0  0  0  0
 24 46  1  0  0  0  0
 25 49  1  0  0  0  0
 25 48  1  0  0  0  0
 26  7  1  0  0  0  0
 27  7  1  0  0  0  0
 29  9  1  0  0  0  0
 30 10  1  0  0  0  0
 32 12  1  0  0  0  0
 36 18  1  0  0  0  0
 37 18  1  0  0  0  0
 40 22  1  0  0  0  0
 42 23  1  0  0  0  0
 43 23  1  0  0  0  0
 44 24  1  0  0  0  0
 45 24  1  0  0  0  0
 47 25  1  0  0  0  0
M  END
