9
 OpenBabel05122313113D

 22 23  0  0  0  0  0  0  0  0999 V2000
   -6.0091   -0.8444    0.2602 N   0  0  0  0  0  0  0  0  0  0  0  0
   -6.6731   -0.3058    0.8140 H   0  0  0  0  0  0  0  0  0  0  0  0
   -6.4206   -1.3880   -0.4968 H   0  0  0  0  0  0  0  0  0  0  0  0
   -0.7147    1.1936   -0.4040 C   0  0  0  0  0  0  0  0  0  0  0  0
    0.0643    1.8860    0.5926 C   0  0  0  0  0  0  0  0  0  0  0  0
   -0.2508    2.0941    1.6211 H   0  0  0  0  0  0  0  0  0  0  0  0
    1.3138    2.2921   -0.0052 C   0  0  0  0  0  0  0  0  0  0  0  0
    2.1097    2.8595    0.4911 H   0  0  0  0  0  0  0  0  0  0  0  0
    1.3233    1.8347   -1.3577 C   0  0  0  0  0  3  0  0  0  0  0  0
    2.1260    1.9929   -2.0874 H   0  0  0  0  0  0  0  0  0  0  0  0
    0.0814    1.1461   -1.6078 C   0  0  0  0  0  0  0  0  0  0  0  0
   -0.2367    0.7283   -2.5690 H   0  0  0  0  0  0  0  0  0  0  0  0
   -2.0813    0.6683   -0.2383 C   0  0  0  0  0  0  0  0  0  0  0  0
   -2.5861   -0.3529   -1.0745 C   0  0  0  0  0  0  0  0  0  0  0  0
   -1.9361   -0.7957   -1.8441 H   0  0  0  0  0  0  0  0  0  0  0  0
   -3.8823   -0.8432   -0.9254 C   0  0  0  0  0  0  0  0  0  0  0  0
   -4.2399   -1.6508   -1.5829 H   0  0  0  0  0  0  0  0  0  0  0  0
   -4.7432   -0.3297    0.0787 C   0  0  0  0  0  0  0  0  0  0  0  0
   -4.2418    0.6971    0.9173 C   0  0  0  0  0  0  0  0  0  0  0  0
   -4.8892    1.1200    1.7015 H   0  0  0  0  0  0  0  0  0  0  0  0
   -2.9412    1.1782    0.7589 C   0  0  0  0  0  0  0  0  0  0  0  0
   -2.5922    1.9879    1.4168 H   0  0  0  0  0  0  0  0  0  0  0  0
  1  2  1  0  0  0  0
  3  1  1  0  0  0  0
  4 13  1  0  0  0  0
  4  5  1  0  0  0  0
  5  6  1  0  0  0  0
  7  8  1  0  0  0  0
  7  5  2  0  0  0  0
  9  7  1  0  0  0  0
 10  9  1  0  0  0  0
 11  9  1  0  0  0  0
 11  4  2  0  0  0  0
 12 11  1  0  0  0  0
 13 21  1  0  0  0  0
 14 16  1  0  0  0  0
 14 13  2  0  0  0  0
 15 14  1  0  0  0  0
 16 18  2  0  0  0  0
 17 16  1  0  0  0  0
 18  1  1  0  0  0  0
 18 19  1  0  0  0  0
 19 20  1  0  0  0  0
 21 19  2  0  0  0  0
 21 22  1  0  0  0  0
M  END
