1
 OpenBabel05122313113D

 16 16  0  0  0  0  0  0  0  0999 V2000
   -1.6435   -2.3493   -0.1260 C   0  0  0  0  0  3  0  0  0  0  0  0
   -1.6724   -3.4580   -0.0902 H   0  0  0  0  0  0  0  0  0  0  0  0
   -2.8708   -1.7404   -0.1722 C   0  0  0  0  0  0  0  0  0  0  0  0
   -4.1192   -2.5043   -0.1427 C   0  0  0  0  0  0  0  0  0  0  0  0
   -4.0333   -3.6039   -0.1837 H   0  0  0  0  0  0  0  0  0  0  0  0
   -5.3501   -1.9311   -0.0658 C   0  0  0  0  0  0  0  0  0  0  0  0
   -6.2495   -2.5701   -0.0761 H   0  0  0  0  0  0  0  0  0  0  0  0
   -5.5467   -0.4421    0.0548 C   0  0  0  0  0  0  0  0  0  0  0  0
   -6.3842   -0.2245    0.7538 H   0  0  0  0  0  0  0  0  0  0  0  0
   -5.8775   -0.0274   -0.9283 H   0  0  0  0  0  0  0  0  0  0  0  0
   -4.2621    0.2633    0.5120 C   0  0  0  0  0  0  0  0  0  0  0  0
   -4.3638    1.3648    0.4164 H   0  0  0  0  0  0  0  0  0  0  0  0
   -4.0957    0.0495    1.5911 H   0  0  0  0  0  0  0  0  0  0  0  0
   -3.0482   -0.2343   -0.2818 C   0  0  0  0  0  0  0  0  0  0  0  0
   -2.1203    0.2817    0.0376 H   0  0  0  0  0  0  0  0  0  0  0  0
   -3.1909    0.0289   -1.3566 H   0  0  0  0  0  0  0  0  0  0  0  0
  1  2  1  0  0  0  0
  3  4  1  0  0  0  0
  3  1  2  0  0  0  0
  4  6  2  0  0  0  0
  5  4  1  0  0  0  0
  6  8  1  0  0  0  0
  7  6  1  0  0  0  0
  8 11  1  0  0  0  0
  8  9  1  0  0  0  0
 10  8  1  0  0  0  0
 11 13  1  0  0  0  0
 12 11  1  0  0  0  0
 14  3  1  0  0  0  0
 14 15  1  0  0  0  0
 14 11  1  0  0  0  0
 16 14  1  0  0  0  0
M  END
