1
 OpenBabel05122313113D

 48 49  0  0  0  0  0  0  0  0999 V2000
    1.8057   -0.1720    0.0221 C   0  0  0  0  0  2  0  0  0  0  0  0
    3.1084   -0.5198    0.0536 N   0  0  0  0  0  0  0  0  0  0  0  0
    3.9976    0.6319    0.2846 C   0  0  0  0  0  0  0  0  0  0  0  0
    4.8365    0.6463   -0.4396 H   0  0  0  0  0  0  0  0  0  0  0  0
    4.4343    0.5848    1.3065 H   0  0  0  0  0  0  0  0  0  0  0  0
    3.0438    1.8314    0.1144 C   0  0  0  0  0  0  0  0  0  0  0  0
    3.1142    2.5681    0.9403 H   0  0  0  0  0  0  0  0  0  0  0  0
    3.2077    2.3781   -0.8410 H   0  0  0  0  0  0  0  0  0  0  0  0
    1.7245    1.1787    0.1034 N   0  0  0  0  0  0  0  0  0  0  0  0
    3.5739   -1.9092    0.1090 C   0  0  0  0  0  0  0  0  0  0  0  0
    2.6680   -2.4995   -0.1452 H   0  0  0  0  0  0  0  0  0  0  0  0
    4.0192   -2.2950    1.5243 C   0  0  0  0  0  0  0  0  0  0  0  0
    3.2044   -2.1092    2.2518 H   0  0  0  0  0  0  0  0  0  0  0  0
    4.9180   -1.7280    1.8453 H   0  0  0  0  0  0  0  0  0  0  0  0
    4.2766   -3.3719    1.5641 H   0  0  0  0  0  0  0  0  0  0  0  0
    4.6510   -2.1751   -0.9461 C   0  0  0  0  0  0  0  0  0  0  0  0
    4.2976   -1.8819   -1.9545 H   0  0  0  0  0  0  0  0  0  0  0  0
    4.9020   -3.2536   -0.9690 H   0  0  0  0  0  0  0  0  0  0  0  0
    5.5899   -1.6241   -0.7285 H   0  0  0  0  0  0  0  0  0  0  0  0
    0.5023    1.9242    0.0133 C   0  0  0  0  0  0  0  0  0  0  0  0
   -0.0079    2.2665   -1.2642 C   0  0  0  0  0  0  0  0  0  0  0  0
   -1.2015    3.0102   -1.3190 C   0  0  0  0  0  0  0  0  0  0  0  0
   -1.6256    3.2779   -2.2988 H   0  0  0  0  0  0  0  0  0  0  0  0
   -1.8656    3.3976   -0.1494 C   0  0  0  0  0  0  0  0  0  0  0  0
   -2.8018    3.9727   -0.2135 H   0  0  0  0  0  0  0  0  0  0  0  0
   -1.3516    3.0369    1.1020 C   0  0  0  0  0  0  0  0  0  0  0  0
   -1.8946    3.3232    2.0154 H   0  0  0  0  0  0  0  0  0  0  0  0
   -0.1602    2.2961    1.2104 C   0  0  0  0  0  0  0  0  0  0  0  0
    0.6605    1.8029   -2.5516 C   0  0  0  0  0  0  0  0  0  0  0  0
    1.5952    1.2747   -2.2733 H   0  0  0  0  0  0  0  0  0  0  0  0
    1.0444    2.9837   -3.4585 C   0  0  0  0  0  0  0  0  0  0  0  0
    1.5777    2.6243   -4.3623 H   0  0  0  0  0  0  0  0  0  0  0  0
    1.7028    3.7054   -2.9330 H   0  0  0  0  0  0  0  0  0  0  0  0
    0.1486    3.5403   -3.8032 H   0  0  0  0  0  0  0  0  0  0  0  0
   -0.2286    0.7819   -3.2836 C   0  0  0  0  0  0  0  0  0  0  0  0
    0.2827    0.3955   -4.1891 H   0  0  0  0  0  0  0  0  0  0  0  0
   -1.1865    1.2408   -3.6048 H   0  0  0  0  0  0  0  0  0  0  0  0
   -0.4665   -0.0773   -2.6224 H   0  0  0  0  0  0  0  0  0  0  0  0
    0.3418    1.8440    2.5745 C   0  0  0  0  0  0  0  0  0  0  0  0
    1.3534    1.4126    2.4267 H   0  0  0  0  0  0  0  0  0  0  0  0
    0.4700    3.0066    3.5708 C   0  0  0  0  0  0  0  0  0  0  0  0
    0.9045    2.6515    4.5274 H   0  0  0  0  0  0  0  0  0  0  0  0
   -0.5170    3.4550    3.8072 H   0  0  0  0  0  0  0  0  0  0  0  0
    1.1187    3.8148    3.1756 H   0  0  0  0  0  0  0  0  0  0  0  0
   -0.5555    0.7176    3.1200 C   0  0  0  0  0  0  0  0  0  0  0  0
   -0.1705    0.3422    4.0905 H   0  0  0  0  0  0  0  0  0  0  0  0
   -0.6012   -0.1328    2.4076 H   0  0  0  0  0  0  0  0  0  0  0  0
   -1.5928    1.0783    3.2802 H   0  0  0  0  0  0  0  0  0  0  0  0
  1  2  1  0  0  0  0
  1  9  1  0  0  0  0
  2 10  1  0  0  0  0
  2  3  1  0  0  0  0
  3  5  1  0  0  0  0
  4  3  1  0  0  0  0
  6  3  1  0  0  0  0
  6  7  1  0  0  0  0
  8  6  1  0  0  0  0
  9  6  1  0  0  0  0
 10 12  1  0  0  0  0
 11 10  1  0  0  0  0
 12 15  1  0  0  0  0
 12 14  1  0  0  0  0
 12 13  1  0  0  0  0
 16 19  1  0  0  0  0
 16 10  1  0  0  0  0
 17 16  1  0  0  0  0
 18 16  1  0  0  0  0
 20  9  1  0  0  0  0
 20 28  1  0  0  0  0
 21 20  2  0  0  0  0
 22 21  1  0  0  0  0
 22 24  2  0  0  0  0
 23 22  1  0  0  0  0
 24 26  1  0  0  0  0
 25 24  1  0  0  0  0
 26 28  2  0  0  0  0
 26 27  1  0  0  0  0
 28 39  1  0  0  0  0
 29 30  1  0  0  0  0
 29 21  1  0  0  0  0
 31 33  1  0  0  0  0
 31 29  1  0  0  0  0
 32 31  1  0  0  0  0
 34 31  1  0  0  0  0
 35 38  1  0  0  0  0
 35 29  1  0  0  0  0
 36 35  1  0  0  0  0
 37 35  1  0  0  0  0
 39 45  1  0  0  0  0
 39 41  1  0  0  0  0
 40 39  1  0  0  0  0
 41 43  1  0  0  0  0
 41 42  1  0  0  0  0
 44 41  1  0  0  0  0
 45 48  1  0  0  0  0
 45 46  1  0  0  0  0
 47 45  1  0  0  0  0
M  END
