3
 OpenBabel05122313113D

 39 41  0  0  0  0  0  0  0  0999 V2000
   -0.5700    0.6931    0.2181 P   0  0  0  0  0  0  0  0  0  0  0  0
    2.3302   -2.1017   -0.2383 O   0  0  0  0  0  0  0  0  0  0  0  0
    1.5552   -1.1626   -0.1323 C   0  0  0  0  0  3  0  0  0  0  0  0
    2.0537    0.1525    0.4806 C   0  0  0  0  0  0  0  0  0  0  0  0
    1.1057    1.0671    0.8075 C   0  0  0  0  0  0  0  0  0  0  0  0
    3.4995    0.3914    0.6836 C   0  0  0  0  0  0  0  0  0  0  0  0
    4.0335    1.6738    0.4098 C   0  0  0  0  0  0  0  0  0  0  0  0
    5.3941    1.9419    0.6015 C   0  0  0  0  0  0  0  0  0  0  0  0
    6.2503    0.9325    1.0714 C   0  0  0  0  0  0  0  0  0  0  0  0
    5.7345   -0.3449    1.3407 C   0  0  0  0  0  0  0  0  0  0  0  0
    4.3744   -0.6207    1.1442 C   0  0  0  0  0  0  0  0  0  0  0  0
   -1.6975    0.9154    1.6497 C   0  0  0  0  0  0  0  0  0  0  0  0
   -1.2158    0.9905    2.9708 C   0  0  0  0  0  0  0  0  0  0  0  0
   -2.1172    1.0390    4.0471 C   0  0  0  0  0  0  0  0  0  0  0  0
   -3.5003    1.0165    3.8113 C   0  0  0  0  0  0  0  0  0  0  0  0
   -3.9847    0.9419    2.4935 C   0  0  0  0  0  0  0  0  0  0  0  0
   -3.0900    0.8855    1.4165 C   0  0  0  0  0  0  0  0  0  0  0  0
   -0.8622    2.1952   -0.8212 C   0  0  0  0  0  0  0  0  0  0  0  0
   -0.3079    2.2070   -2.1176 C   0  0  0  0  0  0  0  0  0  0  0  0
   -0.4347    3.3447   -2.9255 C   0  0  0  0  0  0  0  0  0  0  0  0
   -1.1190    4.4753   -2.4489 C   0  0  0  0  0  0  0  0  0  0  0  0
   -1.6695    4.4671   -1.1581 C   0  0  0  0  0  0  0  0  0  0  0  0
   -1.5388    3.3329   -0.3408 C   0  0  0  0  0  0  0  0  0  0  0  0
    1.3394    2.0319    1.2853 H   0  0  0  0  0  0  0  0  0  0  0  0
    3.3690    2.4572    0.0141 H   0  0  0  0  0  0  0  0  0  0  0  0
    5.7909    2.9430    0.3737 H   0  0  0  0  0  0  0  0  0  0  0  0
    7.3207    1.1404    1.2210 H   0  0  0  0  0  0  0  0  0  0  0  0
    6.4005   -1.1407    1.7077 H   0  0  0  0  0  0  0  0  0  0  0  0
    3.9777   -1.6227    1.3468 H   0  0  0  0  0  0  0  0  0  0  0  0
   -0.1313    0.9989    3.1597 H   0  0  0  0  0  0  0  0  0  0  0  0
   -1.7335    1.0957    5.0772 H   0  0  0  0  0  0  0  0  0  0  0  0
   -4.2045    1.0550    4.6560 H   0  0  0  0  0  0  0  0  0  0  0  0
   -5.0688    0.9228    2.3042 H   0  0  0  0  0  0  0  0  0  0  0  0
   -3.4695    0.8139    0.3848 H   0  0  0  0  0  0  0  0  0  0  0  0
    0.2161    1.3129   -2.4904 H   0  0  0  0  0  0  0  0  0  0  0  0
   -0.0029    3.3445   -3.9377 H   0  0  0  0  0  0  0  0  0  0  0  0
   -1.2259    5.3650   -3.0879 H   0  0  0  0  0  0  0  0  0  0  0  0
   -2.2070    5.3506   -0.7810 H   0  0  0  0  0  0  0  0  0  0  0  0
   -1.9694    3.3336    0.6716 H   0  0  0  0  0  0  0  0  0  0  0  0
  1  5  1  0  0  0  0
  1 12  1  0  0  0  0
  2  3  2  0  0  0  0
  3  4  1  0  0  0  0
  4  6  1  0  0  0  0
  4  5  2  0  0  0  0
  5 24  1  0  0  0  0
  6 11  1  0  0  0  0
  7  8  1  0  0  0  0
  7  6  2  0  0  0  0
  8  9  2  0  0  0  0
  9 27  1  0  0  0  0
  9 10  1  0  0  0  0
 10 28  1  0  0  0  0
 11 10  2  0  0  0  0
 11 29  1  0  0  0  0
 12 13  1  0  0  0  0
 13 30  1  0  0  0  0
 13 14  2  0  0  0  0
 14 31  1  0  0  0  0
 15 14  1  0  0  0  0
 15 32  1  0  0  0  0
 16 15  2  0  0  0  0
 17 12  2  0  0  0  0
 17 16  1  0  0  0  0
 18 23  1  0  0  0  0
 18  1  1  0  0  0  0
 19 18  2  0  0  0  0
 20 21  2  0  0  0  0
 20 19  1  0  0  0  0
 21 22  1  0  0  0  0
 22 38  1  0  0  0  0
 22 23  2  0  0  0  0
 23 39  1  0  0  0  0
 25  7  1  0  0  0  0
 26  8  1  0  0  0  0
 33 16  1  0  0  0  0
 34 17  1  0  0  0  0
 35 19  1  0  0  0  0
 36 20  1  0  0  0  0
 37 21  1  0  0  0  0
M  END
