8
 OpenBabel05122313113D

 35 35  0  0  0  0  0  0  0  0999 V2000
    2.9754   -1.2669   -0.0242 Si  0  0  0  0  0  0  0  0  0  0  0  0
   -2.9757   -1.2665   -0.0241 Si  0  0  0  0  0  0  0  0  0  0  0  0
   -0.0002   -1.7967    1.4173 O   0  0  0  0  0  0  0  0  0  0  0  0
    1.1876   -1.0097   -0.6023 C   0  0  0  0  0  0  0  0  0  0  0  0
   -0.0002   -1.3357    0.1630 C   0  0  0  0  0  0  0  0  0  0  0  0
   -1.1879   -1.0096   -0.6023 C   0  0  0  0  0  0  0  0  0  0  0  0
   -0.7123   -0.5774   -1.9069 C   0  0  0  0  0  0  0  0  0  0  0  0
    0.7120   -0.5774   -1.9069 C   0  0  0  0  0  3  0  0  0  0  0  0
    3.1962   -3.1130    0.3081 C   0  0  0  0  0  0  0  0  0  0  0  0
    4.1050   -0.6700   -1.4192 C   0  0  0  0  0  0  0  0  0  0  0  0
    3.3113   -0.2757    1.5475 C   0  0  0  0  0  0  0  0  0  0  0  0
   -3.1972   -3.1126    0.3077 C   0  0  0  0  0  0  0  0  0  0  0  0
   -4.1053   -0.6688   -1.4188 C   0  0  0  0  0  0  0  0  0  0  0  0
   -3.3111   -0.2758    1.5480 C   0  0  0  0  0  0  0  0  0  0  0  0
    0.0000   -0.9526    2.0276 H   0  0  0  0  0  0  0  0  0  0  0  0
   -1.3514   -0.2998   -2.7551 H   0  0  0  0  0  0  0  0  0  0  0  0
    1.3512   -0.2999   -2.7551 H   0  0  0  0  0  0  0  0  0  0  0  0
    4.2105   -3.3351    0.6987 H   0  0  0  0  0  0  0  0  0  0  0  0
    3.0420   -3.7102   -0.6134 H   0  0  0  0  0  0  0  0  0  0  0  0
    2.4507   -3.4427    1.0600 H   0  0  0  0  0  0  0  0  0  0  0  0
    3.9493    0.4087   -1.6266 H   0  0  0  0  0  0  0  0  0  0  0  0
    5.1705   -0.8071   -1.1419 H   0  0  0  0  0  0  0  0  0  0  0  0
    3.9282   -1.2331   -2.3585 H   0  0  0  0  0  0  0  0  0  0  0  0
    4.3330   -0.4839    1.9266 H   0  0  0  0  0  0  0  0  0  0  0  0
    2.5860   -0.5339    2.3436 H   0  0  0  0  0  0  0  0  0  0  0  0
    3.2317    0.8126    1.3515 H   0  0  0  0  0  0  0  0  0  0  0  0
   -3.0434   -3.7096   -0.6141 H   0  0  0  0  0  0  0  0  0  0  0  0
   -4.2115   -3.3344    0.6984 H   0  0  0  0  0  0  0  0  0  0  0  0
   -2.4517   -3.4429    1.0593 H   0  0  0  0  0  0  0  0  0  0  0  0
   -3.9287   -1.2316   -2.3584 H   0  0  0  0  0  0  0  0  0  0  0  0
   -5.1708   -0.8057   -1.1415 H   0  0  0  0  0  0  0  0  0  0  0  0
   -3.9494    0.4100   -1.6258 H   0  0  0  0  0  0  0  0  0  0  0  0
   -4.3327   -0.4839    1.9272 H   0  0  0  0  0  0  0  0  0  0  0  0
   -3.2312    0.8126    1.3524 H   0  0  0  0  0  0  0  0  0  0  0  0
   -2.5856   -0.5344    2.3438 H   0  0  0  0  0  0  0  0  0  0  0  0
  1  9  1  0  0  0  0
  1 11  1  0  0  0  0
  2 12  1  0  0  0  0
  2 14  1  0  0  0  0
  3 15  1  0  0  0  0
  4  1  1  0  0  0  0
  4  5  2  0  0  0  0
  5  3  1  0  0  0  0
  6  2  1  0  0  0  0
  6  5  1  0  0  0  0
  7  8  1  0  0  0  0
  7  6  2  0  0  0  0
  8  4  1  0  0  0  0
  9 18  1  0  0  0  0
  9 20  1  0  0  0  0
 10 22  1  0  0  0  0
 10  1  1  0  0  0  0
 11 24  1  0  0  0  0
 11 25  1  0  0  0  0
 12 28  1  0  0  0  0
 12 29  1  0  0  0  0
 13 31  1  0  0  0  0
 13  2  1  0  0  0  0
 14 33  1  0  0  0  0
 14 35  1  0  0  0  0
 16  7  1  0  0  0  0
 17  8  1  0  0  0  0
 19  9  1  0  0  0  0
 21 10  1  0  0  0  0
 23 10  1  0  0  0  0
 26 11  1  0  0  0  0
 27 12  1  0  0  0  0
 30 13  1  0  0  0  0
 32 13  1  0  0  0  0
 34 14  1  0  0  0  0
M  END
