6
 OpenBabel05122313113D

 41 43  0  0  0  0  0  0  0  0999 V2000
    0.7162   -0.1622    0.8101 S   0  0  0  0  0  0  0  0  0  0  0  0
    0.3052    2.5769   -0.2492 S   0  0  0  0  0  0  0  0  0  0  0  0
    3.4608   -0.9479    0.9411 S   0  0  0  0  0  0  0  0  0  0  0  0
    5.4374    1.1471   -0.0816 S   0  0  0  0  0  0  0  0  0  0  0  0
   -2.1863   -0.8191    2.3008 O   0  0  0  0  0  0  0  0  0  0  0  0
   -2.0260   -0.5499    1.0066 C   0  0  0  0  0  2  0  0  0  0  0  0
   -1.4851   -0.0934    3.3400 C   0  0  0  0  0  0  0  0  0  0  0  0
   -0.4213   -0.3990    3.3713 H   0  0  0  0  0  0  0  0  0  0  0  0
   -1.9899   -0.3670    4.2831 H   0  0  0  0  0  0  0  0  0  0  0  0
   -1.5471    0.9992    3.1657 H   0  0  0  0  0  0  0  0  0  0  0  0
   -0.9894    0.4519    0.6790 C   0  0  0  0  0  0  0  0  0  0  0  0
   -1.1735    1.7182    0.1910 C   0  0  0  0  0  0  0  0  0  0  0  0
   -2.4432    2.4380    0.0043 C   0  0  0  0  0  0  0  0  0  0  0  0
   -3.5275    2.2387    0.8883 C   0  0  0  0  0  0  0  0  0  0  0  0
   -3.4150    1.5631    1.7475 H   0  0  0  0  0  0  0  0  0  0  0  0
   -4.7448    2.9012    0.6866 C   0  0  0  0  0  0  0  0  0  0  0  0
   -5.5807    2.7208    1.3781 H   0  0  0  0  0  0  0  0  0  0  0  0
   -4.8963    3.7877   -0.3903 C   0  0  0  0  0  0  0  0  0  0  0  0
   -5.8525    4.3090   -0.5466 H   0  0  0  0  0  0  0  0  0  0  0  0
   -3.8218    4.0048   -1.2687 C   0  0  0  0  0  0  0  0  0  0  0  0
   -3.9351    4.6911   -2.1212 H   0  0  0  0  0  0  0  0  0  0  0  0
   -2.6072    3.3370   -1.0764 C   0  0  0  0  0  0  0  0  0  0  0  0
   -1.7824    3.4819   -1.7906 H   0  0  0  0  0  0  0  0  0  0  0  0
    1.4357    1.3049    0.1518 C   0  0  0  0  0  0  0  0  0  0  0  0
    2.7920    1.5056   -0.0513 C   0  0  0  0  0  0  0  0  0  0  0  0
    3.0966    2.4710   -0.4900 H   0  0  0  0  0  0  0  0  0  0  0  0
    3.8084    0.5555    0.2749 C   0  0  0  0  0  0  0  0  0  0  0  0
    6.5146   -0.2632    0.3928 C   0  0  0  0  0  0  0  0  0  0  0  0
    6.0884   -0.6459    1.3418 H   0  0  0  0  0  0  0  0  0  0  0  0
    6.5603   -1.3460   -0.7046 C   0  0  0  0  0  0  0  0  0  0  0  0
    6.8366   -2.3115   -0.2264 H   0  0  0  0  0  0  0  0  0  0  0  0
    5.5808   -1.4978   -1.1971 H   0  0  0  0  0  0  0  0  0  0  0  0
    7.6889   -0.8755   -1.6282 C   0  0  0  0  0  0  0  0  0  0  0  0
    8.0427   -1.6587   -2.3278 H   0  0  0  0  0  0  0  0  0  0  0  0
    7.3312   -0.0189   -2.2405 H   0  0  0  0  0  0  0  0  0  0  0  0
    8.7662   -0.4083   -0.6359 C   0  0  0  0  0  0  0  0  0  0  0  0
    9.5184    0.2678   -1.0887 H   0  0  0  0  0  0  0  0  0  0  0  0
    9.3175   -1.2918   -0.2503 H   0  0  0  0  0  0  0  0  0  0  0  0
    7.9759    0.2636    0.5161 C   0  0  0  0  0  0  0  0  0  0  0  0
    8.0052    1.3699    0.4357 H   0  0  0  0  0  0  0  0  0  0  0  0
    8.3941    0.0178    1.5120 H   0  0  0  0  0  0  0  0  0  0  0  0
  2 24  1  0  0  0  0
  2 12  1  0  0  0  0
  4 27  1  0  0  0  0
  4 28  1  0  0  0  0
  5  7  1  0  0  0  0
  6  5  1  0  0  0  0
  7  8  1  0  0  0  0
  7  9  1  0  0  0  0
 10  7  1  0  0  0  0
 11  1  1  0  0  0  0
 11  6  1  0  0  0  0
 12 11  2  0  0  0  0
 13 12  1  0  0  0  0
 13 14  1  0  0  0  0
 14 15  1  0  0  0  0
 16 14  2  0  0  0  0
 16 17  1  0  0  0  0
 18 16  1  0  0  0  0
 19 18  1  0  0  0  0
 20 22  1  0  0  0  0
 20 18  2  0  0  0  0
 21 20  1  0  0  0  0
 22 13  2  0  0  0  0
 23 22  1  0  0  0  0
 24  1  1  0  0  0  0
 25 24  2  0  0  0  0
 25 27  1  0  0  0  0
 26 25  1  0  0  0  0
 27  3  2  0  0  0  0
 28 39  1  0  0  0  0
 28 29  1  0  0  0  0
 30 31  1  0  0  0  0
 30 28  1  0  0  0  0
 32 30  1  0  0  0  0
 33 30  1  0  0  0  0
 33 36  1  0  0  0  0
 34 33  1  0  0  0  0
 35 33  1  0  0  0  0
 36 38  1  0  0  0  0
 36 39  1  0  0  0  0
 37 36  1  0  0  0  0
 39 41  1  0  0  0  0
 40 39  1  0  0  0  0
M  END
