38
 OpenBabel05122313113D

 44 45  0  0  0  0  0  0  0  0999 V2000
   -0.6414    1.0248    0.0277 P   0  0  0  0  0  0  0  0  0  0  0  0
   -0.1175   -1.8910   -0.1860 N   0  0  0  0  0  0  0  0  0  0  0  0
   -2.6517   -2.5289   -0.0840 C   0  0  0  0  0  0  0  0  0  0  0  0
   -2.6124   -3.1822   -0.9846 H   0  0  0  0  0  0  0  0  0  0  0  0
   -2.6545   -3.2109    0.7950 H   0  0  0  0  0  0  0  0  0  0  0  0
   -1.5102   -1.5457   -0.0577 C   0  0  0  0  0  0  0  0  0  0  0  0
   -1.9471   -0.2545   -0.0270 C   0  0  0  0  0  0  0  0  0  0  0  0
   -3.4207   -0.2534   -0.0658 C   0  0  0  0  0  0  0  0  0  0  0  0
   -4.3665    0.7861   -0.0925 C   0  0  0  0  0  0  0  0  0  0  0  0
   -4.0567    1.8402   -0.0929 H   0  0  0  0  0  0  0  0  0  0  0  0
   -5.7322    0.4593   -0.1264 C   0  0  0  0  0  0  0  0  0  0  0  0
   -6.4811    1.2646   -0.1503 H   0  0  0  0  0  0  0  0  0  0  0  0
   -6.1533   -0.8818   -0.1305 C   0  0  0  0  0  0  0  0  0  0  0  0
   -7.2279   -1.1155   -0.1556 H   0  0  0  0  0  0  0  0  0  0  0  0
   -3.8540   -1.6113   -0.0893 C   0  0  0  0  0  0  0  0  0  0  0  0
   -5.2132   -1.9290   -0.1107 C   0  0  0  0  0  0  0  0  0  0  0  0
   -5.5479   -2.9775   -0.1213 H   0  0  0  0  0  0  0  0  0  0  0  0
   -0.8111    1.8097    1.7294 C   0  0  0  0  0  0  0  0  0  0  0  0
    0.1208    2.4089    1.8110 H   0  0  0  0  0  0  0  0  0  0  0  0
   -0.7738    0.6960    2.7830 C   0  0  0  0  0  0  0  0  0  0  0  0
   -0.6249    1.1253    3.7942 H   0  0  0  0  0  0  0  0  0  0  0  0
    0.0447   -0.0261    2.5856 H   0  0  0  0  0  0  0  0  0  0  0  0
   -1.7283    0.1318    2.7934 H   0  0  0  0  0  0  0  0  0  0  0  0
   -2.0131    2.7369    1.9248 C   0  0  0  0  0  0  0  0  0  0  0  0
   -2.9703    2.1856    1.8415 H   0  0  0  0  0  0  0  0  0  0  0  0
   -2.0286    3.5819    1.2096 H   0  0  0  0  0  0  0  0  0  0  0  0
   -1.9774    3.1746    2.9438 H   0  0  0  0  0  0  0  0  0  0  0  0
   -1.2163    2.3045   -1.2089 C   0  0  0  0  0  0  0  0  0  0  0  0
   -2.1857    2.6618   -0.8021 H   0  0  0  0  0  0  0  0  0  0  0  0
   -1.4677    1.6702   -2.5792 C   0  0  0  0  0  0  0  0  0  0  0  0
   -1.8402    2.4387   -3.2862 H   0  0  0  0  0  0  0  0  0  0  0  0
   -2.2224    0.8605   -2.5332 H   0  0  0  0  0  0  0  0  0  0  0  0
   -0.5313    1.2517   -3.0034 H   0  0  0  0  0  0  0  0  0  0  0  0
   -0.2417    3.4818   -1.2824 C   0  0  0  0  0  0  0  0  0  0  0  0
    0.7261    3.1613   -1.7130 H   0  0  0  0  0  0  0  0  0  0  0  0
   -0.0444    3.9386   -0.2915 H   0  0  0  0  0  0  0  0  0  0  0  0
   -0.6542    4.2754   -1.9375 H   0  0  0  0  0  0  0  0  0  0  0  0
    0.4441   -1.7226   -1.5079 C   0  0  0  0  0  3  0  0  0  0  0  0
   -0.3042   -1.4698   -2.2763 H   0  0  0  0  0  0  0  0  0  0  0  0
    1.1304   -2.5359   -1.8076 H   0  0  0  0  0  0  0  0  0  0  0  0
    0.2689   -3.0882    0.5851 C   0  0  0  0  0  0  0  0  0  0  0  0
    0.1089   -2.8990    1.6627 H   0  0  0  0  0  0  0  0  0  0  0  0
    1.3332   -3.3068    0.4043 H   0  0  0  0  0  0  0  0  0  0  0  0
   -0.3333   -3.9653    0.2702 H   0  0  0  0  0  0  0  0  0  0  0  0
  1 18  1  0  0  0  0
  2  6  1  0  0  0  0
  2 41  1  0  0  0  0
  3  6  1  0  0  0  0
  3  5  1  0  0  0  0
  4  3  1  0  0  0  0
  6  7  2  0  0  0  0
  7  1  1  0  0  0  0
  8  7  1  0  0  0  0
  9  8  2  0  0  0  0
 10  9  1  0  0  0  0
 11  9  1  0  0  0  0
 12 11  1  0  0  0  0
 13 11  2  0  0  0  0
 13 16  1  0  0  0  0
 14 13  1  0  0  0  0
 15  3  1  0  0  0  0
 15  8  1  0  0  0  0
 16 15  2  0  0  0  0
 17 16  1  0  0  0  0
 18 19  1  0  0  0  0
 18 24  1  0  0  0  0
 18 20  1  0  0  0  0
 20 23  1  0  0  0  0
 20 21  1  0  0  0  0
 22 20  1  0  0  0  0
 24 27  1  0  0  0  0
 25 24  1  0  0  0  0
 26 24  1  0  0  0  0
 28 29  1  0  0  0  0
 28  1  1  0  0  0  0
 30 32  1  0  0  0  0
 30 28  1  0  0  0  0
 31 30  1  0  0  0  0
 33 30  1  0  0  0  0
 34 28  1  0  0  0  0
 34 36  1  0  0  0  0
 35 34  1  0  0  0  0
 37 34  1  0  0  0  0
 38  2  1  0  0  0  0
 39 38  1  0  0  0  0
 40 38  1  0  0  0  0
 41 42  1  0  0  0  0
 43 41  1  0  0  0  0
 44 41  1  0  0  0  0
M  END
