1
 OpenBabel05122313113D

 16 15  0  0  0  0  0  0  0  0999 V2000
   -1.9928    0.1222    0.0002 C   0  0  0  0  0  1  0  0  0  0  0  0
   -3.3405   -0.1091    0.0002 C   0  0  0  0  0  0  0  0  0  0  0  0
   -4.5605   -0.3452    0.0002 C   0  0  0  0  0  0  0  0  0  0  0  0
   -6.0010   -0.6174    0.0001 C   0  0  0  0  0  0  0  0  0  0  0  0
   -6.7699    0.7269   -0.0005 C   0  0  0  0  0  0  0  0  0  0  0  0
   -6.5198    1.3268    0.8964 H   0  0  0  0  0  0  0  0  0  0  0  0
   -7.8626    0.5345   -0.0007 H   0  0  0  0  0  0  0  0  0  0  0  0
   -6.5193    1.3264   -0.8975 H   0  0  0  0  0  0  0  0  0  0  0  0
   -6.3671   -1.4293    1.2669 C   0  0  0  0  0  0  0  0  0  0  0  0
   -5.8241   -2.3946    1.2899 H   0  0  0  0  0  0  0  0  0  0  0  0
   -7.4564   -1.6401    1.2775 H   0  0  0  0  0  0  0  0  0  0  0  0
   -6.1110   -0.8660    2.1857 H   0  0  0  0  0  0  0  0  0  0  0  0
   -6.3666   -1.4300   -1.2664 C   0  0  0  0  0  0  0  0  0  0  0  0
   -6.1104   -0.8671   -2.1855 H   0  0  0  0  0  0  0  0  0  0  0  0
   -7.4558   -1.6411   -1.2772 H   0  0  0  0  0  0  0  0  0  0  0  0
   -5.8234   -2.3952   -1.2888 H   0  0  0  0  0  0  0  0  0  0  0  0
  1  2  1  0  0  0  0
  2  3  3  0  0  0  0
  4  3  1  0  0  0  0
  4  9  1  0  0  0  0
  5  4  1  0  0  0  0
  5  6  1  0  0  0  0
  7  5  1  0  0  0  0
  8  5  1  0  0  0  0
  9 11  1  0  0  0  0
  9 10  1  0  0  0  0
  9 12  1  0  0  0  0
 13  4  1  0  0  0  0
 14 13  1  0  0  0  0
 15 13  1  0  0  0  0
 16 13  1  0  0  0  0
M  END
