5
 OpenBabel05122313113D

 41 43  0  0  1  0  0  0  0  0999 V2000
   -0.4669   -1.5762    1.8135 O   0  0  0  0  0  0  0  0  0  0  0  0
   -0.4951   -0.8414   -0.4228 C   0  0  2  0  0  3  0  0  0  0  0  0
   -1.2057   -1.3974    0.6971 C   0  0  0  0  0  0  0  0  0  0  0  0
   -2.5933   -1.7073    0.6038 C   0  0  0  0  0  0  0  0  0  0  0  0
   -3.2632   -1.5012   -0.6356 C   0  0  0  0  0  3  0  0  0  0  0  0
   -2.5641   -1.0224   -1.7726 C   0  0  0  0  0  0  0  0  0  0  0  0
   -1.1871   -0.6558   -1.6681 C   0  0  0  0  0  0  0  0  0  0  0  0
    0.9598   -0.5272   -0.2799 C   0  0  0  0  0  0  0  0  0  0  0  0
    1.9313   -1.5787   -0.4277 C   0  0  0  0  0  0  0  0  0  0  0  0
    3.2962   -1.2858   -0.2880 C   0  0  0  0  0  0  0  0  0  0  0  0
    3.7226    0.0630   -0.0238 C   0  0  0  0  0  0  0  0  0  0  0  0
    5.0983    0.4230    0.1104 C   0  0  0  0  0  0  0  0  0  0  0  0
    5.4777    1.7334    0.3673 C   0  0  0  0  0  0  0  0  0  0  0  0
    4.5010    2.7544    0.5064 C   0  0  0  0  0  0  0  0  0  0  0  0
    3.1564    2.4416    0.3829 C   0  0  0  0  0  0  0  0  0  0  0  0
    2.7380    1.1050    0.1163 C   0  0  0  0  0  0  0  0  0  0  0  0
    1.3633    0.7725   -0.0100 C   0  0  0  0  0  0  0  0  0  0  0  0
   -1.1289   -1.8756    3.0354 C   0  0  0  0  0  0  0  0  0  0  0  0
   -0.4519   -0.1305   -2.8719 C   0  0  0  0  0  0  0  0  0  0  0  0
    1.4585   -2.9871   -0.7123 C   0  0  0  0  0  0  0  0  0  0  0  0
    4.3465   -2.3640   -0.4011 C   0  0  0  0  0  0  0  0  0  0  0  0
   -3.1546   -2.0625    1.4753 H   0  0  0  0  0  0  0  0  0  0  0  0
   -4.3401   -1.7102   -0.7046 H   0  0  0  0  0  0  0  0  0  0  0  0
   -3.1008   -0.8467   -2.7143 H   0  0  0  0  0  0  0  0  0  0  0  0
    5.8743   -0.3480    0.0075 H   0  0  0  0  0  0  0  0  0  0  0  0
    6.5453    1.9833    0.4648 H   0  0  0  0  0  0  0  0  0  0  0  0
    4.8136    3.7893    0.7117 H   0  0  0  0  0  0  0  0  0  0  0  0
    2.3857    3.2210    0.4885 H   0  0  0  0  0  0  0  0  0  0  0  0
    0.6033    1.5579    0.1105 H   0  0  0  0  0  0  0  0  0  0  0  0
   -1.8635   -1.0845    3.2966 H   0  0  0  0  0  0  0  0  0  0  0  0
   -1.6388   -2.8629    2.9971 H   0  0  0  0  0  0  0  0  0  0  0  0
   -0.3409   -1.9072    3.8092 H   0  0  0  0  0  0  0  0  0  0  0  0
   -1.1577    0.2539   -3.6316 H   0  0  0  0  0  0  0  0  0  0  0  0
    0.1474   -0.9445   -3.3316 H   0  0  0  0  0  0  0  0  0  0  0  0
    0.2507    0.6776   -2.5994 H   0  0  0  0  0  0  0  0  0  0  0  0
    0.3885   -3.0091   -0.9890 H   0  0  0  0  0  0  0  0  0  0  0  0
    1.5771   -3.6419    0.1771 H   0  0  0  0  0  0  0  0  0  0  0  0
    2.0247   -3.4573   -1.5405 H   0  0  0  0  0  0  0  0  0  0  0  0
    4.9692   -2.4130    0.5165 H   0  0  0  0  0  0  0  0  0  0  0  0
    5.0426   -2.1676   -1.2440 H   0  0  0  0  0  0  0  0  0  0  0  0
    3.9130   -3.3667   -0.5555 H   0  0  0  0  0  0  0  0  0  0  0  0
  1 18  1  0  0  0  0
  2  8  1  6  0  0  0
  2  3  1  0  0  0  0
  3  1  1  0  0  0  0
  4  3  2  0  0  0  0
  4 22  1  0  0  0  0
  5  4  1  0  0  0  0
  6  7  2  0  0  0  0
  6  5  1  0  0  0  0
  7  2  1  0  0  0  0
  8 17  1  0  0  0  0
  9 10  1  0  0  0  0
  9  8  2  0  0  0  0
 10 11  2  0  0  0  0
 11 12  1  0  0  0  0
 11 16  1  0  0  0  0
 12 13  2  0  0  0  0
 13 26  1  0  0  0  0
 13 14  1  0  0  0  0
 14 27  1  0  0  0  0
 15 28  1  0  0  0  0
 15 14  2  0  0  0  0
 16 15  1  0  0  0  0
 17 29  1  0  0  0  0
 17 16  2  0  0  0  0
 18 30  1  0  0  0  0
 18 32  1  0  0  0  0
 19 35  1  0  0  0  0
 19  7  1  0  0  0  0
 20  9  1  0  0  0  0
 20 37  1  0  0  0  0
 21 10  1  0  0  0  0
 21 39  1  0  0  0  0
 23  5  1  0  0  0  0
 24  6  1  0  0  0  0
 25 12  1  0  0  0  0
 31 18  1  0  0  0  0
 33 19  1  0  0  0  0
 34 19  1  0  0  0  0
 36 20  1  0  0  0  0
 38 20  1  0  0  0  0
 40 21  1  0  0  0  0
 41 21  1  0  0  0  0
M  END
