3
 OpenBabel05122313113D

 46 48  0  0  0  0  0  0  0  0999 V2000
    1.8920   -1.7665    0.1064 N   0  0  0  0  0  0  0  0  0  0  0  0
   -0.2086   -2.4013   -0.0296 N   0  0  0  0  0  0  0  0  0  0  0  0
    0.5991   -1.3014    0.0479 C   0  0  0  0  0  2  0  0  0  0  0  0
    1.9946   -3.2183   -0.2341 C   0  0  0  0  0  0  0  0  0  0  0  0
    0.5448   -3.6533    0.0690 C   0  0  0  0  0  0  0  0  0  0  0  0
    0.1681   -4.4018   -0.6568 H   0  0  0  0  0  0  0  0  0  0  0  0
    0.4504   -4.0880    1.0911 H   0  0  0  0  0  0  0  0  0  0  0  0
    3.0201   -3.9417    0.6375 C   0  0  0  0  0  0  0  0  0  0  0  0
    4.0419   -3.5575    0.4493 H   0  0  0  0  0  0  0  0  0  0  0  0
    3.0165   -5.0260    0.4070 H   0  0  0  0  0  0  0  0  0  0  0  0
    2.7910   -3.8106    1.7133 H   0  0  0  0  0  0  0  0  0  0  0  0
    2.3193   -3.3714   -1.7300 C   0  0  0  0  0  0  0  0  0  0  0  0
    1.5745   -2.8258   -2.3430 H   0  0  0  0  0  0  0  0  0  0  0  0
    2.3120   -4.4416   -2.0204 H   0  0  0  0  0  0  0  0  0  0  0  0
    3.3224   -2.9603   -1.9574 H   0  0  0  0  0  0  0  0  0  0  0  0
    3.0431   -0.9167    0.1205 C   0  0  0  0  0  0  0  0  0  0  0  0
    3.7515   -0.7443    1.3259 C   0  0  0  0  0  0  0  0  0  0  0  0
    3.3735   -1.2298    2.2355 H   0  0  0  0  0  0  0  0  0  0  0  0
    4.8897    0.0706    1.3598 C   0  0  0  0  0  0  0  0  0  0  0  0
    5.4313    0.2117    2.3072 H   0  0  0  0  0  0  0  0  0  0  0  0
    5.3243    0.7238    0.1939 C   0  0  0  0  0  0  0  0  0  0  0  0
    6.2140    1.3711    0.2250 H   0  0  0  0  0  0  0  0  0  0  0  0
    4.6175    0.5573   -1.0058 C   0  0  0  0  0  0  0  0  0  0  0  0
    4.9456    1.0757   -1.9194 H   0  0  0  0  0  0  0  0  0  0  0  0
    3.4798   -0.2649   -1.0492 C   0  0  0  0  0  0  0  0  0  0  0  0
    2.8938   -0.3714   -1.9723 H   0  0  0  0  0  0  0  0  0  0  0  0
   -1.6303   -2.4136    0.0972 C   0  0  0  0  0  0  0  0  0  0  0  0
   -2.4187   -2.4806   -1.0738 C   0  0  0  0  0  0  0  0  0  0  0  0
   -3.8177   -2.4678   -0.9279 C   0  0  0  0  0  0  0  0  0  0  0  0
   -4.4450   -2.5029   -1.8333 H   0  0  0  0  0  0  0  0  0  0  0  0
   -4.4335   -2.3945    0.3360 C   0  0  0  0  0  0  0  0  0  0  0  0
   -3.6124   -2.3283    1.4784 C   0  0  0  0  0  0  0  0  0  0  0  0
   -4.0774   -2.2516    2.4746 H   0  0  0  0  0  0  0  0  0  0  0  0
   -2.2091   -2.3341    1.3864 C   0  0  0  0  0  0  0  0  0  0  0  0
   -1.7681   -2.4936   -2.4310 C   0  0  0  0  0  0  0  0  0  0  0  0
   -1.1593   -1.5763   -2.5855 H   0  0  0  0  0  0  0  0  0  0  0  0
   -2.5253   -2.5556   -3.2353 H   0  0  0  0  0  0  0  0  0  0  0  0
   -1.0768   -3.3546   -2.5468 H   0  0  0  0  0  0  0  0  0  0  0  0
   -5.9363   -2.4103    0.4658 C   0  0  0  0  0  0  0  0  0  0  0  0
   -6.3147   -3.4495    0.5769 H   0  0  0  0  0  0  0  0  0  0  0  0
   -6.4283   -1.9792   -0.4284 H   0  0  0  0  0  0  0  0  0  0  0  0
   -6.2758   -1.8448    1.3560 H   0  0  0  0  0  0  0  0  0  0  0  0
   -1.3456   -2.1611    2.6083 C   0  0  0  0  0  0  0  0  0  0  0  0
   -1.9539   -2.1874    3.5319 H   0  0  0  0  0  0  0  0  0  0  0  0
   -0.8001   -1.1924    2.5767 H   0  0  0  0  0  0  0  0  0  0  0  0
   -0.5712   -2.9516    2.6876 H   0  0  0  0  0  0  0  0  0  0  0  0
  1 16  1  0  0  0  0
  2  3  1  0  0  0  0
  2  5  1  0  0  0  0
  2 27  1  0  0  0  0
  3  1  1  0  0  0  0
  4  5  1  0  0  0  0
  4  1  1  0  0  0  0
  4  8  1  0  0  0  0
  5  7  1  0  0  0  0
  6  5  1  0  0  0  0
  8 11  1  0  0  0  0
  9  8  1  0  0  0  0
 10  8  1  0  0  0  0
 12  4  1  0  0  0  0
 13 12  1  0  0  0  0
 14 12  1  0  0  0  0
 15 12  1  0  0  0  0
 16 17  1  0  0  0  0
 17 19  2  0  0  0  0
 17 18  1  0  0  0  0
 19 20  1  0  0  0  0
 21 22  1  0  0  0  0
 21 19  1  0  0  0  0
 23 21  2  0  0  0  0
 24 23  1  0  0  0  0
 25 23  1  0  0  0  0
 25 16  2  0  0  0  0
 26 25  1  0  0  0  0
 27 34  1  0  0  0  0
 28 29  1  0  0  0  0
 28 27  2  0  0  0  0
 29 31  2  0  0  0  0
 30 29  1  0  0  0  0
 31 39  1  0  0  0  0
 31 32  1  0  0  0  0
 32 33  1  0  0  0  0
 34 32  2  0  0  0  0
 34 43  1  0  0  0  0
 35 28  1  0  0  0  0
 36 35  1  0  0  0  0
 37 35  1  0  0  0  0
 38 35  1  0  0  0  0
 39 40  1  0  0  0  0
 39 42  1  0  0  0  0
 41 39  1  0  0  0  0
 43 46  1  0  0  0  0
 43 44  1  0  0  0  0
 45 43  1  0  0  0  0
M  END
