7
 OpenBabel05122313113D

 12 12  0  0  0  0  0  0  0  0999 V2000
   -2.9098    0.7641    0.0008 N   0  0  0  0  0  0  0  0  0  0  0  0
   -2.9660    1.3337    0.8472 H   0  0  0  0  0  0  0  0  0  0  0  0
   -2.9656    1.3355   -0.8443 H   0  0  0  0  0  0  0  0  0  0  0  0
   -1.9280   -0.2004    0.0000 C   0  0  0  0  0  0  0  0  0  0  0  0
   -1.3398   -0.8126   -1.1608 C   0  0  0  0  0  3  0  0  0  0  0  0
   -1.5682   -0.5563   -2.2016 H   0  0  0  0  0  0  0  0  0  0  0  0
   -0.4757   -1.8767   -0.7143 C   0  0  0  0  0  3  0  0  0  0  0  0
    0.0783   -2.5646   -1.3632 H   0  0  0  0  0  0  0  0  0  0  0  0
   -0.4755   -1.8778    0.7114 C   0  0  0  0  0  3  0  0  0  0  0  0
    0.0785   -2.5669    1.3591 H   0  0  0  0  0  0  0  0  0  0  0  0
   -1.3396   -0.8143    1.1597 C   0  0  0  0  0  0  0  0  0  0  0  0
   -1.5677   -0.5596    2.2009 H   0  0  0  0  0  0  0  0  0  0  0  0
  1  2  1  0  0  0  0
  3  1  1  0  0  0  0
  4  1  1  0  0  0  0
  4 11  2  0  0  0  0
  5  7  1  0  0  0  0
  5  4  1  0  0  0  0
  6  5  1  0  0  0  0
  7  9  1  0  0  0  0
  8  7  1  0  0  0  0
  9 11  1  0  0  0  0
  9 10  1  0  0  0  0
 11 12  1  0  0  0  0
M  END
