2
 OpenBabel05122313113D

 46 46  0  0  0  0  0  0  0  0999 V2000
   -0.1944    1.2062   -0.2932 O   0  0  0  0  0  0  0  0  0  0  0  0
    0.4798    0.0223   -0.1090 C   0  0  0  0  0  2  0  0  0  0  0  0
   -0.3724   -1.1208    0.0105 C   0  0  0  0  0  0  0  0  0  0  0  0
   -1.7769   -0.9751    0.0397 C   0  0  0  0  0  0  0  0  0  0  0  0
   -2.3783    0.3213   -0.0888 C   0  0  0  0  0  0  0  0  0  0  0  0
   -1.5262    1.3895   -0.3027 C   0  0  0  0  0  0  0  0  0  0  0  0
    0.2474   -2.4976    0.0573 C   0  0  0  0  0  0  0  0  0  0  0  0
   -0.2892   -3.1455    0.7807 H   0  0  0  0  0  0  0  0  0  0  0  0
    1.2817   -2.4165    0.4363 H   0  0  0  0  0  0  0  0  0  0  0  0
    0.2722   -3.1799   -1.3246 C   0  0  0  0  0  0  0  0  0  0  0  0
   -0.7671   -3.2757   -1.7097 H   0  0  0  0  0  0  0  0  0  0  0  0
    0.7938   -2.5120   -2.0409 H   0  0  0  0  0  0  0  0  0  0  0  0
    0.9521   -4.5474   -1.2954 C   0  0  0  0  0  0  0  0  0  0  0  0
    0.9381   -5.0275   -2.2942 H   0  0  0  0  0  0  0  0  0  0  0  0
    0.4495   -5.2351   -0.5832 H   0  0  0  0  0  0  0  0  0  0  0  0
    2.0123   -4.4545   -0.9850 H   0  0  0  0  0  0  0  0  0  0  0  0
   -2.6675   -2.1682    0.2974 C   0  0  0  0  0  0  0  0  0  0  0  0
   -2.2238   -3.0828   -0.1395 H   0  0  0  0  0  0  0  0  0  0  0  0
   -3.6450   -2.0348   -0.2080 H   0  0  0  0  0  0  0  0  0  0  0  0
   -2.9081   -2.3974    1.8050 C   0  0  0  0  0  0  0  0  0  0  0  0
   -1.9268   -2.5248    2.3100 H   0  0  0  0  0  0  0  0  0  0  0  0
   -3.3513   -1.4795    2.2482 H   0  0  0  0  0  0  0  0  0  0  0  0
   -3.8058   -3.6026    2.0802 C   0  0  0  0  0  0  0  0  0  0  0  0
   -3.9633   -3.7497    3.1671 H   0  0  0  0  0  0  0  0  0  0  0  0
   -3.3617   -4.5358    1.6759 H   0  0  0  0  0  0  0  0  0  0  0  0
   -4.8034   -3.4802    1.6093 H   0  0  0  0  0  0  0  0  0  0  0  0
   -3.8760    0.5334   -0.0674 C   0  0  0  0  0  0  0  0  0  0  0  0
   -4.1048    1.5370    0.3463 H   0  0  0  0  0  0  0  0  0  0  0  0
   -4.3479   -0.1833    0.6349 H   0  0  0  0  0  0  0  0  0  0  0  0
   -4.5351    0.3972   -1.4528 C   0  0  0  0  0  0  0  0  0  0  0  0
   -4.0731    1.1349   -2.1443 H   0  0  0  0  0  0  0  0  0  0  0  0
   -4.2862   -0.5990   -1.8788 H   0  0  0  0  0  0  0  0  0  0  0  0
   -6.0503    0.5884   -1.4114 C   0  0  0  0  0  0  0  0  0  0  0  0
   -6.5007    0.4925   -2.4192 H   0  0  0  0  0  0  0  0  0  0  0  0
   -6.3201    1.5903   -1.0173 H   0  0  0  0  0  0  0  0  0  0  0  0
   -6.5340   -0.1646   -0.7548 H   0  0  0  0  0  0  0  0  0  0  0  0
   -1.8805    2.8322   -0.4896 C   0  0  0  0  0  0  0  0  0  0  0  0
   -1.1981    3.2468   -1.2616 H   0  0  0  0  0  0  0  0  0  0  0  0
   -2.9116    2.9240   -0.8839 H   0  0  0  0  0  0  0  0  0  0  0  0
   -1.7301    3.6523    0.8096 C   0  0  0  0  0  0  0  0  0  0  0  0
   -0.6941    3.5273    1.1880 H   0  0  0  0  0  0  0  0  0  0  0  0
   -2.3990    3.2225    1.5868 H   0  0  0  0  0  0  0  0  0  0  0  0
   -2.0411    5.1335    0.6041 C   0  0  0  0  0  0  0  0  0  0  0  0
   -1.9253    5.7022    1.5478 H   0  0  0  0  0  0  0  0  0  0  0  0
   -3.0801    5.2865    0.2443 H   0  0  0  0  0  0  0  0  0  0  0  0
   -1.3594    5.5862   -0.1452 H   0  0  0  0  0  0  0  0  0  0  0  0
  1  2  1  0  0  0  0
  2  3  1  0  0  0  0
  3  4  2  0  0  0  0
  3  7  1  0  0  0  0
  4 17  1  0  0  0  0
  5 27  1  0  0  0  0
  5  4  1  0  0  0  0
  6  1  1  0  0  0  0
  6  5  2  0  0  0  0
  7  9  1  0  0  0  0
  7  8  1  0  0  0  0
 10 13  1  0  0  0  0
 10  7  1  0  0  0  0
 11 10  1  0  0  0  0
 12 10  1  0  0  0  0
 13 16  1  0  0  0  0
 13 15  1  0  0  0  0
 14 13  1  0  0  0  0
 17 20  1  0  0  0  0
 18 17  1  0  0  0  0
 19 17  1  0  0  0  0
 20 23  1  0  0  0  0
 20 22  1  0  0  0  0
 20 21  1  0  0  0  0
 23 24  1  0  0  0  0
 25 23  1  0  0  0  0
 26 23  1  0  0  0  0
 27 28  1  0  0  0  0
 27 29  1  0  0  0  0
 30 33  1  0  0  0  0
 30 27  1  0  0  0  0
 31 30  1  0  0  0  0
 32 30  1  0  0  0  0
 33 35  1  0  0  0  0
 33 36  1  0  0  0  0
 34 33  1  0  0  0  0
 37  6  1  0  0  0  0
 37 40  1  0  0  0  0
 38 37  1  0  0  0  0
 39 37  1  0  0  0  0
 40 41  1  0  0  0  0
 40 42  1  0  0  0  0
 43 40  1  0  0  0  0
 43 44  1  0  0  0  0
 45 43  1  0  0  0  0
 46 43  1  0  0  0  0
M  END
