3
 OpenBabel05122313113D

 19 19  0  0  0  0  0  0  0  0999 V2000
    2.3035    0.5812    1.5799 O   0  0  0  0  0  0  0  0  0  0  0  0
    0.2056   -0.5591   -2.6472 C   0  0  0  0  0  3  0  0  0  0  0  0
    1.5832   -0.4650   -2.2604 C   0  0  0  0  0  3  0  0  0  0  0  0
    1.9300    0.3997   -1.1700 C   0  0  0  0  0  3  0  0  0  0  0  0
    3.3008    0.4469   -0.5978 C   0  0  0  0  0  0  0  0  0  0  0  0
    3.4229    0.5929    0.8132 C   0  0  0  0  0  0  0  0  0  0  0  0
    4.6889    0.7055    1.4143 C   0  0  0  0  0  0  0  0  0  0  0  0
    5.8441    0.6620    0.6194 C   0  0  0  0  0  0  0  0  0  0  0  0
    5.7443    0.4881   -0.7709 C   0  0  0  0  0  0  0  0  0  0  0  0
    4.4771    0.3828   -1.3677 C   0  0  0  0  0  0  0  0  0  0  0  0
   -0.4007    0.3573   -2.7182 H   0  0  0  0  0  0  0  0  0  0  0  0
   -0.0704   -1.3302   -3.3856 H   0  0  0  0  0  0  0  0  0  0  0  0
    2.3310   -1.1725   -2.6579 H   0  0  0  0  0  0  0  0  0  0  0  0
    1.3686    1.3464   -1.0762 H   0  0  0  0  0  0  0  0  0  0  0  0
    1.5876    0.1798    0.9867 H   0  0  0  0  0  0  0  0  0  0  0  0
    4.7465    0.8126    2.5075 H   0  0  0  0  0  0  0  0  0  0  0  0
    6.8328    0.7561    1.0945 H   0  0  0  0  0  0  0  0  0  0  0  0
    6.6513    0.4490   -1.3924 H   0  0  0  0  0  0  0  0  0  0  0  0
    4.3900    0.2754   -2.4605 H   0  0  0  0  0  0  0  0  0  0  0  0
  2  3  1  0  0  0  0
  3  4  1  0  0  0  0
  4 14  1  0  0  0  0
  4  5  1  0  0  0  0
  5  6  1  0  0  0  0
  6  7  2  0  0  0  0
  6  1  1  0  0  0  0
  7 16  1  0  0  0  0
  8 17  1  0  0  0  0
  8  7  1  0  0  0  0
  9  8  2  0  0  0  0
 10  9  1  0  0  0  0
 10  5  2  0  0  0  0
 11  2  1  0  0  0  0
 12  2  1  0  0  0  0
 13  3  1  0  0  0  0
 15  1  1  0  0  0  0
 18  9  1  0  0  0  0
 19 10  1  0  0  0  0
M  END
