3
 OpenBabel05122313113D

 45 46  0  0  1  0  0  0  0  0999 V2000
    0.8542    3.6144   -0.6954 C   0  0  2  0  0  0  0  0  0  0  0  0
   -0.3061    2.8027   -0.0858 C   0  0  0  0  0  0  0  0  0  0  0  0
   -0.3350    1.3598   -0.5212 C   0  0  0  0  0  3  0  0  0  0  0  0
    0.3203    0.3435    0.2366 C   0  0  0  0  0  3  0  0  0  0  0  0
    0.2799   -1.0382   -0.1453 C   0  0  2  0  0  3  0  0  0  0  0  0
    0.8529   -2.0317    0.8710 C   0  0  0  0  0  0  0  0  0  0  0  0
    2.2957   -2.4195    0.5987 C   0  0  0  0  0  0  0  0  0  0  0  0
    2.7013   -3.7669    0.6697 C   0  0  0  0  0  0  0  0  0  0  0  0
    4.0368   -4.1347    0.4418 C   0  0  0  0  0  0  0  0  0  0  0  0
    4.9917   -3.1544    0.1325 C   0  0  0  0  0  0  0  0  0  0  0  0
    4.5984   -1.8084    0.0540 C   0  0  0  0  0  0  0  0  0  0  0  0
    3.2640   -1.4450    0.2820 C   0  0  0  0  0  0  0  0  0  0  0  0
    2.2183    3.0530   -0.3314 C   0  0  0  0  0  0  0  0  0  0  0  0
    3.0134    2.3895   -1.2837 C   0  0  0  0  0  0  0  0  0  0  0  0
    4.2640    1.8575   -0.9305 C   0  0  0  0  0  0  0  0  0  0  0  0
    4.7330    1.9850    0.3860 C   0  0  0  0  0  0  0  0  0  0  0  0
    3.9486    2.6507    1.3438 C   0  0  0  0  0  0  0  0  0  0  0  0
    2.7023    3.1837    0.9867 C   0  0  0  0  0  0  0  0  0  0  0  0
    0.3911   -1.5110   -1.5644 C   0  0  0  0  0  0  0  0  0  0  0  0
    0.9747   -0.7825   -2.5475 C   0  0  0  0  0  0  0  0  0  0  0  0
   -0.0354   -2.9384   -1.8237 C   0  0  0  0  0  0  0  0  0  0  0  0
    0.6840    4.9440   -0.2163 O   0  0  0  0  0  0  0  0  0  0  0  0
    0.7552    3.5738   -1.8102 H   0  0  0  0  0  0  0  0  0  0  0  0
   -1.2446    3.3218   -0.3711 H   0  0  0  0  0  0  0  0  0  0  0  0
   -0.2334    2.8762    1.0188 H   0  0  0  0  0  0  0  0  0  0  0  0
   -0.3795    1.2061   -1.6118 H   0  0  0  0  0  0  0  0  0  0  0  0
    0.7189    0.6043    1.2308 H   0  0  0  0  0  0  0  0  0  0  0  0
    0.2366   -2.9507    0.9172 H   0  0  0  0  0  0  0  0  0  0  0  0
    0.7802   -1.5753    1.8805 H   0  0  0  0  0  0  0  0  0  0  0  0
    1.9546   -4.5401    0.9143 H   0  0  0  0  0  0  0  0  0  0  0  0
    4.3315   -5.1936    0.5046 H   0  0  0  0  0  0  0  0  0  0  0  0
    6.0395   -3.4386   -0.0494 H   0  0  0  0  0  0  0  0  0  0  0  0
    5.3371   -1.0294   -0.1899 H   0  0  0  0  0  0  0  0  0  0  0  0
    2.9728   -0.3866    0.2074 H   0  0  0  0  0  0  0  0  0  0  0  0
    2.6495    2.2981   -2.3199 H   0  0  0  0  0  0  0  0  0  0  0  0
    4.8722    1.3390   -1.6872 H   0  0  0  0  0  0  0  0  0  0  0  0
    5.7113    1.5672    0.6681 H   0  0  0  0  0  0  0  0  0  0  0  0
    4.3144    2.7557    2.3767 H   0  0  0  0  0  0  0  0  0  0  0  0
    2.0913    3.7237    1.7264 H   0  0  0  0  0  0  0  0  0  0  0  0
    1.4092    0.2080   -2.3545 H   0  0  0  0  0  0  0  0  0  0  0  0
    1.0624   -1.1872   -3.5683 H   0  0  0  0  0  0  0  0  0  0  0  0
   -0.1365   -3.1406   -2.9078 H   0  0  0  0  0  0  0  0  0  0  0  0
    0.7284   -3.6421   -1.4294 H   0  0  0  0  0  0  0  0  0  0  0  0
   -0.9913   -3.1856   -1.3193 H   0  0  0  0  0  0  0  0  0  0  0  0
    1.4706    5.4494   -0.4933 H   0  0  0  0  0  0  0  0  0  0  0  0
  1 23  1  6  0  0  0
  1 13  1  0  0  0  0
  1 22  1  0  0  0  0
  1  2  1  0  0  0  0
  2 25  1  0  0  0  0
  3  2  1  0  0  0  0
  3  4  1  0  0  0  0
  4 27  1  0  0  0  0
  5 19  1  6  0  0  0
  5  4  1  0  0  0  0
  5  6  1  0  0  0  0
  6 28  1  0  0  0  0
  6 29  1  0  0  0  0
  7  8  1  0  0  0  0
  7  6  1  0  0  0  0
  8 30  1  0  0  0  0
  9 31  1  0  0  0  0
  9  8  2  0  0  0  0
 10  9  1  0  0  0  0
 11 10  2  0  0  0  0
 11 12  1  0  0  0  0
 12  7  2  0  0  0  0
 13 18  1  0  0  0  0
 14 15  1  0  0  0  0
 14 13  2  0  0  0  0
 15 16  2  0  0  0  0
 16 37  1  0  0  0  0
 16 17  1  0  0  0  0
 17 38  1  0  0  0  0
 18 17  2  0  0  0  0
 18 39  1  0  0  0  0
 20 40  1  0  0  0  0
 20 19  2  0  0  0  0
 21 19  1  0  0  0  0
 21 43  1  0  0  0  0
 21 44  1  0  0  0  0
 24  2  1  0  0  0  0
 26  3  1  0  0  0  0
 32 10  1  0  0  0  0
 33 11  1  0  0  0  0
 34 12  1  0  0  0  0
 35 14  1  0  0  0  0
 36 15  1  0  0  0  0
 41 20  1  0  0  0  0
 42 21  1  0  0  0  0
 45 22  1  0  0  0  0
M  END
