7
 OpenBabel05122313113D

 44 48  0  0  1  0  0  0  0  0999 V2000
   -4.6090   -1.6223    0.2182 O   0  0  0  0  0  0  0  0  0  0  0  0
   -1.9036   -1.4072    1.1422 O   0  0  0  0  0  0  0  0  0  0  0  0
   -0.4323    0.4946    0.8228 C   0  0  1  0  0  0  0  0  0  0  0  0
    0.4867    0.7800   -0.3576 C   0  0  1  0  0  3  0  0  0  0  0  0
    0.8807    3.0356    0.4916 N   0  0  0  0  0  0  0  0  0  0  0  0
    0.3460   -1.8505    0.2780 C   0  0  2  0  0  3  0  0  0  0  0  0
    0.4992   -0.1479   -1.4583 C   0  0  0  0  0  3  0  0  0  0  0  0
    0.5758    0.1691   -2.5088 H   0  0  0  0  0  0  0  0  0  0  0  0
    0.4184    2.2723   -0.6706 C   0  0  2  0  0  0  0  0  0  0  0  0
    1.1134    2.5088   -1.5012 H   0  0  0  0  0  0  0  0  0  0  0  0
   -1.8041    0.7137    0.2407 C   0  0  0  0  0  0  0  0  0  0  0  0
    0.0074    2.8708    1.6450 C   0  0  0  0  0  0  0  0  0  0  0  0
   -1.0161    3.3005    1.4704 H   0  0  0  0  0  0  0  0  0  0  0  0
    0.4385    3.4419    2.4938 H   0  0  0  0  0  0  0  0  0  0  0  0
   -3.8823   -0.5052   -0.0609 C   0  0  0  0  0  0  0  0  0  0  0  0
   -2.5775   -0.4207    0.4719 C   0  0  0  0  0  0  0  0  0  0  0  0
   -4.3009    0.5743   -0.8764 C   0  0  0  0  0  0  0  0  0  0  0  0
   -5.3072    0.5540   -1.3164 H   0  0  0  0  0  0  0  0  0  0  0  0
   -0.4933   -0.9969    1.2114 C   0  0  2  0  0  0  0  0  0  0  0  0
   -0.1701   -1.1914    2.2522 H   0  0  0  0  0  0  0  0  0  0  0  0
   -0.1020    1.3975    2.0270 C   0  0  0  0  0  0  0  0  0  0  0  0
   -0.8825    1.2618    2.8036 H   0  0  0  0  0  0  0  0  0  0  0  0
    0.8629    1.0633    2.4559 H   0  0  0  0  0  0  0  0  0  0  0  0
    0.4610   -1.5295   -1.1110 C   0  0  0  0  0  3  0  0  0  0  0  0
    0.5733   -2.3015   -1.8846 H   0  0  0  0  0  0  0  0  0  0  0  0
   -1.0436    2.6521   -1.1549 C   0  0  0  0  0  0  0  0  0  0  0  0
   -1.2411    3.7077   -0.8652 H   0  0  0  0  0  0  0  0  0  0  0  0
   -1.0612    2.6499   -2.2653 H   0  0  0  0  0  0  0  0  0  0  0  0
   -3.4414    1.6435   -1.2073 C   0  0  0  0  0  0  0  0  0  0  0  0
   -3.7903    2.4011   -1.9265 H   0  0  0  0  0  0  0  0  0  0  0  0
   -2.1415    1.7213   -0.6691 C   0  0  0  0  0  0  0  0  0  0  0  0
    0.4597   -3.1097    0.7718 O   0  0  0  0  0  0  0  0  0  0  0  0
    0.8649   -4.1650   -0.0849 C   0  0  0  0  0  0  0  0  0  0  0  0
    0.1135   -4.3534   -0.8830 H   0  0  0  0  0  0  0  0  0  0  0  0
    0.9446   -5.0664    0.5498 H   0  0  0  0  0  0  0  0  0  0  0  0
    1.8519   -3.9624   -0.5518 H   0  0  0  0  0  0  0  0  0  0  0  0
   -5.9041   -1.7234   -0.3368 C   0  0  0  0  0  0  0  0  0  0  0  0
   -6.5721   -0.9028    0.0114 H   0  0  0  0  0  0  0  0  0  0  0  0
   -6.3177   -2.6906    0.0046 H   0  0  0  0  0  0  0  0  0  0  0  0
   -5.8833   -1.7116   -1.4507 H   0  0  0  0  0  0  0  0  0  0  0  0
    1.2046    4.4157    0.2036 C   0  0  0  0  0  0  0  0  0  0  0  0
    0.3225    5.0524   -0.0784 H   0  0  0  0  0  0  0  0  0  0  0  0
    1.9390    4.4654   -0.6263 H   0  0  0  0  0  0  0  0  0  0  0  0
    1.6694    4.8821    1.0965 H   0  0  0  0  0  0  0  0  0  0  0  0
  2 19  1  0  0  0  0
  3 11  1  6  0  0  0
  3 19  1  0  0  0  0
  3 21  1  0  0  0  0
  4  7  1  6  0  0  0
  4  3  1  0  0  0  0
  5 12  1  0  0  0  0
  6 32  1  6  0  0  0
  6 19  1  0  0  0  0
  7 24  1  0  0  0  0
  8  7  1  0  0  0  0
  9 10  1  6  0  0  0
  9  4  1  0  0  0  0
  9  5  1  0  0  0  0
 11 16  1  0  0  0  0
 12 21  1  0  0  0  0
 12 14  1  0  0  0  0
 13 12  1  0  0  0  0
 15  1  1  0  0  0  0
 15 16  2  0  0  0  0
 16  2  1  0  0  0  0
 17 15  1  0  0  0  0
 18 17  1  0  0  0  0
 19 20  1  1  0  0  0
 21 23  1  0  0  0  0
 21 22  1  0  0  0  0
 24  6  1  0  0  0  0
 25 24  1  0  0  0  0
 26 27  1  0  0  0  0
 26  9  1  0  0  0  0
 26 31  1  0  0  0  0
 28 26  1  0  0  0  0
 29 17  2  0  0  0  0
 29 31  1  0  0  0  0
 30 29  1  0  0  0  0
 31 11  2  0  0  0  0
 33 35  1  0  0  0  0
 33 32  1  0  0  0  0
 34 33  1  0  0  0  0
 36 33  1  0  0  0  0
 37 39  1  0  0  0  0
 37 38  1  0  0  0  0
 37  1  1  0  0  0  0
 40 37  1  0  0  0  0
 41  5  1  0  0  0  0
 41 44  1  0  0  0  0
 42 41  1  0  0  0  0
 43 41  1  0  0  0  0
M  END
