4
 OpenBabel05122313113D

 17 17  0  0  0  0  0  0  0  0999 V2000
   -7.5150   -1.6131   -0.5315 N   0  0  0  0  0  0  0  0  0  0  0  0
   -7.7193   -1.9277   -1.4810 H   0  0  0  0  0  0  0  0  0  0  0  0
   -8.0481   -2.1267    0.1715 H   0  0  0  0  0  0  0  0  0  0  0  0
   -0.9880   -0.3654   -0.1369 C   0  0  0  0  0  3  0  0  0  0  0  0
   -1.1818   -0.3934   -1.2305 H   0  0  0  0  0  0  0  0  0  0  0  0
   -2.0130   -0.5846    0.7253 C   0  0  0  0  0  0  0  0  0  0  0  0
   -1.8172   -0.5508    1.8110 H   0  0  0  0  0  0  0  0  0  0  0  0
   -3.4089   -0.8638    0.3645 C   0  0  0  0  0  0  0  0  0  0  0  0
   -3.8969   -0.8527   -0.9673 C   0  0  0  0  0  0  0  0  0  0  0  0
   -3.2074   -0.6282   -1.7959 H   0  0  0  0  0  0  0  0  0  0  0  0
   -5.2345   -1.1175   -1.2640 C   0  0  0  0  0  0  0  0  0  0  0  0
   -5.5751   -1.0946   -2.3121 H   0  0  0  0  0  0  0  0  0  0  0  0
   -6.1693   -1.4077   -0.2390 C   0  0  0  0  0  0  0  0  0  0  0  0
   -5.6960   -1.4188    1.0937 C   0  0  0  0  0  0  0  0  0  0  0  0
   -6.3977   -1.6374    1.9150 H   0  0  0  0  0  0  0  0  0  0  0  0
   -4.3537   -1.1525    1.3793 C   0  0  0  0  0  0  0  0  0  0  0  0
   -4.0152   -1.1714    2.4279 H   0  0  0  0  0  0  0  0  0  0  0  0
  1 13  1  0  0  0  0
  1  3  1  0  0  0  0
  2  1  1  0  0  0  0
  4  6  2  0  0  0  0
  5  4  1  0  0  0  0
  6  7  1  0  0  0  0
  8  6  1  0  0  0  0
  8 16  1  0  0  0  0
  9  8  2  0  0  0  0
 10  9  1  0  0  0  0
 11  9  1  0  0  0  0
 11 13  2  0  0  0  0
 12 11  1  0  0  0  0
 13 14  1  0  0  0  0
 14 16  2  0  0  0  0
 14 15  1  0  0  0  0
 16 17  1  0  0  0  0
M  END
