3
 OpenBabel05122313113D

 24 23  0  0  0  0  0  0  0  0999 V2000
   -0.7318    1.8381    0.3061 P   0  0  0  0  0  0  0  0  0  0  0  0
   -2.8690   -0.6033   -0.3374 Si  0  0  0  0  0  0  0  0  0  0  0  0
   -1.2724    0.3699   -0.5324 C   0  0  0  0  0  3  0  0  0  0  0  0
   -1.0007    3.3696   -0.6966 C   0  0  0  0  0  0  0  0  0  0  0  0
   -1.7452    2.1630    1.8120 C   0  0  0  0  0  0  0  0  0  0  0  0
   -3.0803   -1.6435   -1.9029 C   0  0  0  0  0  0  0  0  0  0  0  0
   -2.9061   -1.7590    1.1656 C   0  0  0  0  0  0  0  0  0  0  0  0
   -4.3723    0.5627   -0.1940 C   0  0  0  0  0  0  0  0  0  0  0  0
   -0.4981    3.2629   -1.6764 H   0  0  0  0  0  0  0  0  0  0  0  0
   -0.5782    4.2537   -0.1771 H   0  0  0  0  0  0  0  0  0  0  0  0
   -2.0854    3.5252   -0.8666 H   0  0  0  0  0  0  0  0  0  0  0  0
   -2.7614    2.4971    1.5249 H   0  0  0  0  0  0  0  0  0  0  0  0
   -1.8321    1.2389    2.4119 H   0  0  0  0  0  0  0  0  0  0  0  0
   -1.2652    2.9466    2.4312 H   0  0  0  0  0  0  0  0  0  0  0  0
   -2.2057   -2.3146   -2.0194 H   0  0  0  0  0  0  0  0  0  0  0  0
   -3.1450   -0.9986   -2.8039 H   0  0  0  0  0  0  0  0  0  0  0  0
   -4.0034   -2.2577   -1.8554 H   0  0  0  0  0  0  0  0  0  0  0  0
   -3.8329   -2.3692    1.1419 H   0  0  0  0  0  0  0  0  0  0  0  0
   -2.9012   -1.2123    2.1312 H   0  0  0  0  0  0  0  0  0  0  0  0
   -2.0391   -2.4487    1.1374 H   0  0  0  0  0  0  0  0  0  0  0  0
   -4.3769    1.3120   -1.0130 H   0  0  0  0  0  0  0  0  0  0  0  0
   -4.3904    1.1112    0.7702 H   0  0  0  0  0  0  0  0  0  0  0  0
   -5.3187   -0.0146   -0.2615 H   0  0  0  0  0  0  0  0  0  0  0  0
   -1.1466    0.5210   -1.6244 H   0  0  0  0  0  0  0  0  0  0  0  0
  1  5  1  0  0  0  0
  2  8  1  0  0  0  0
  2  7  1  0  0  0  0
  3  2  1  0  0  0  0
  3  1  1  0  0  0  0
  4 10  1  0  0  0  0
  4  1  1  0  0  0  0
  5 13  1  0  0  0  0
  5 14  1  0  0  0  0
  6 17  1  0  0  0  0
  6  2  1  0  0  0  0
  7 19  1  0  0  0  0
  8 22  1  0  0  0  0
  9  4  1  0  0  0  0
 11  4  1  0  0  0  0
 12  5  1  0  0  0  0
 15  6  1  0  0  0  0
 16  6  1  0  0  0  0
 18  7  1  0  0  0  0
 20  7  1  0  0  0  0
 21  8  1  0  0  0  0
 23  8  1  0  0  0  0
 24  3  1  0  0  0  0
M  END
