2
 OpenBabel05122313113D

 11 11  0  0  1  0  0  0  0  0999 V2000
   -3.6783   -0.9055    0.0002 N   0  0  0  0  0  0  0  0  0  0  0  0
   -1.6218    0.6839   -0.0000 C   0  0  2  0  0  3  0  0  0  0  0  0
   -0.9604    1.2267    1.1682 C   0  0  0  0  0  0  0  0  0  0  0  0
    0.0687    2.0984    0.7177 C   0  0  0  0  0  0  0  0  0  0  0  0
    0.0687    2.0985   -0.7176 C   0  0  0  0  0  0  0  0  0  0  0  0
   -0.9604    1.2268   -1.1681 C   0  0  0  0  0  0  0  0  0  0  0  0
   -2.7403   -0.1988   -0.0001 C   0  0  0  0  0  0  0  0  0  0  0  0
   -1.2382    1.0158    2.2067 H   0  0  0  0  0  0  0  0  0  0  0  0
    0.7603    2.6547    1.3613 H   0  0  0  0  0  0  0  0  0  0  0  0
    0.7604    2.6548   -1.3610 H   0  0  0  0  0  0  0  0  0  0  0  0
   -1.2381    1.0160   -2.2067 H   0  0  0  0  0  0  0  0  0  0  0  0
  2  7  1  1  0  0  0
  2  3  1  0  0  0  0
  3  8  1  0  0  0  0
  4  3  2  0  0  0  0
  4  9  1  0  0  0  0
  5  4  1  0  0  0  0
  6  5  2  0  0  0  0
  6  2  1  0  0  0  0
  7  1  3  0  0  0  0
 10  5  1  0  0  0  0
 11  6  1  0  0  0  0
M  END
