1
 OpenBabel05122313113D

 16 16  0  0  0  0  0  0  0  0999 V2000
   -0.8372    0.8940   -0.0005 C   0  0  0  0  0  2  0  0  0  0  0  0
   -0.8953    2.4043   -0.0008 C   0  0  0  0  0  0  0  0  0  0  0  0
   -2.0475    0.3404   -0.0004 N   0  0  0  0  0  0  0  0  0  0  0  0
   -3.3321    1.0939   -0.0003 C   0  0  0  0  0  0  0  0  0  0  0  0
   -4.3778    0.0210    0.0003 C   0  0  0  0  0  0  0  0  0  0  0  0
   -3.8169   -1.1995    0.0002 C   0  0  0  0  0  0  0  0  0  0  0  0
   -2.3217   -1.1148   -0.0003 C   0  0  0  0  0  0  0  0  0  0  0  0
    0.1051    2.8643   -0.0024 H   0  0  0  0  0  0  0  0  0  0  0  0
   -1.4470    2.7830   -0.8901 H   0  0  0  0  0  0  0  0  0  0  0  0
   -1.4439    2.7830    0.8905 H   0  0  0  0  0  0  0  0  0  0  0  0
   -3.3932    1.7601    0.8901 H   0  0  0  0  0  0  0  0  0  0  0  0
   -3.3938    1.7597   -0.8909 H   0  0  0  0  0  0  0  0  0  0  0  0
   -5.4535    0.2450    0.0006 H   0  0  0  0  0  0  0  0  0  0  0  0
   -4.3511   -2.1595    0.0005 H   0  0  0  0  0  0  0  0  0  0  0  0
   -1.8636   -1.5933   -0.8907 H   0  0  0  0  0  0  0  0  0  0  0  0
   -1.8629   -1.5934    0.8896 H   0  0  0  0  0  0  0  0  0  0  0  0
  1  3  1  0  0  0  0
  2  1  1  0  0  0  0
  2 10  1  0  0  0  0
  3  7  1  0  0  0  0
  3  4  1  0  0  0  0
  4  5  1  0  0  0  0
  4 11  1  0  0  0  0
  5 13  1  0  0  0  0
  6  5  2  0  0  0  0
  6 14  1  0  0  0  0
  7  6  1  0  0  0  0
  7 16  1  0  0  0  0
  8  2  1  0  0  0  0
  9  2  1  0  0  0  0
 12  4  1  0  0  0  0
 15  7  1  0  0  0  0
M  END
