3
 OpenBabel05122313113D

 50 54  0  0  1  0  0  0  0  0999 V2000
   -1.2136   -0.9453   -0.7971 C   0  0  0  0  0  0  0  0  0  0  0  0
   -0.7355    0.3964   -0.5024 C   0  0  1  0  0  3  0  0  0  0  0  0
    0.7274    0.4103   -0.5099 C   0  0  1  0  0  3  0  0  0  0  0  0
    1.2283   -0.9234   -0.8106 C   0  0  1  0  0  3  0  0  0  0  0  0
   -2.6370   -1.3333   -0.8754 C   0  0  0  0  0  0  0  0  0  0  0  0
   -3.0715   -2.5831   -0.3732 C   0  0  0  0  0  0  0  0  0  0  0  0
   -4.4086   -2.9842   -0.4861 C   0  0  0  0  0  0  0  0  0  0  0  0
   -5.3465   -2.1516   -1.1197 C   0  0  0  0  0  0  0  0  0  0  0  0
   -4.9270   -0.9201   -1.6458 C   0  0  0  0  0  0  0  0  0  0  0  0
   -3.5907   -0.5133   -1.5241 C   0  0  0  0  0  0  0  0  0  0  0  0
   -1.5718    1.6016   -0.2742 C   0  0  0  0  0  0  0  0  0  0  0  0
   -2.6243    1.6090    0.6671 C   0  0  0  0  0  0  0  0  0  0  0  0
   -3.4237    2.7464    0.8391 C   0  0  0  0  0  0  0  0  0  0  0  0
   -3.1891    3.8985    0.0703 C   0  0  0  0  0  0  0  0  0  0  0  0
   -2.1514    3.9008   -0.8745 C   0  0  0  0  0  0  0  0  0  0  0  0
   -1.3489    2.7635   -1.0452 C   0  0  0  0  0  0  0  0  0  0  0  0
    1.5381    1.6377   -0.3203 C   0  0  0  0  0  0  0  0  0  0  0  0
    1.3369    2.5132    0.7689 C   0  0  0  0  0  0  0  0  0  0  0  0
    2.0929    3.6863    0.8930 C   0  0  0  0  0  0  0  0  0  0  0  0
    3.0618    4.0086   -0.0715 C   0  0  0  0  0  0  0  0  0  0  0  0
    3.2666    3.1489   -1.1623 C   0  0  0  0  0  0  0  0  0  0  0  0
    2.5130    1.9731   -1.2857 C   0  0  0  0  0  0  0  0  0  0  0  0
    2.6566   -1.3123   -0.7922 C   0  0  0  0  0  0  0  0  0  0  0  0
    3.0900   -2.3331   -1.6701 C   0  0  0  0  0  0  0  0  0  0  0  0
    4.4308   -2.7413   -1.7037 C   0  0  0  0  0  0  0  0  0  0  0  0
    5.3719   -2.1461   -0.8493 C   0  0  0  0  0  0  0  0  0  0  0  0
    4.9571   -1.1397    0.0395 C   0  0  0  0  0  0  0  0  0  0  0  0
    3.6191   -0.7269    0.0671 C   0  0  0  0  0  0  0  0  0  0  0  0
    0.0157   -1.8558   -1.0457 B   0  0  0  0  0  0  0  0  0  0  0  0
    0.0151   -3.0533   -1.2458 H   0  0  0  0  0  0  0  0  0  0  0  0
   -2.3363   -3.2429    0.1104 H   0  0  0  0  0  0  0  0  0  0  0  0
   -4.7218   -3.9586   -0.0801 H   0  0  0  0  0  0  0  0  0  0  0  0
   -6.3974   -2.4659   -1.2098 H   0  0  0  0  0  0  0  0  0  0  0  0
   -5.6480   -0.2651   -2.1590 H   0  0  0  0  0  0  0  0  0  0  0  0
   -3.2749    0.4487   -1.9515 H   0  0  0  0  0  0  0  0  0  0  0  0
   -2.8174    0.7044    1.2605 H   0  0  0  0  0  0  0  0  0  0  0  0
   -4.2388    2.7327    1.5787 H   0  0  0  0  0  0  0  0  0  0  0  0
   -3.8163    4.7926    0.2069 H   0  0  0  0  0  0  0  0  0  0  0  0
   -1.9618    4.7969   -1.4849 H   0  0  0  0  0  0  0  0  0  0  0  0
   -0.5379    2.7690   -1.7878 H   0  0  0  0  0  0  0  0  0  0  0  0
    0.5750    2.2653    1.5213 H   0  0  0  0  0  0  0  0  0  0  0  0
    1.9234    4.3558    1.7502 H   0  0  0  0  0  0  0  0  0  0  0  0
    3.6564    4.9294    0.0272 H   0  0  0  0  0  0  0  0  0  0  0  0
    4.0221    3.3938   -1.9243 H   0  0  0  0  0  0  0  0  0  0  0  0
    2.6756    1.2984   -2.1391 H   0  0  0  0  0  0  0  0  0  0  0  0
    2.3503   -2.8020   -2.3357 H   0  0  0  0  0  0  0  0  0  0  0  0
    4.7424   -3.5338   -2.4015 H   0  0  0  0  0  0  0  0  0  0  0  0
    6.4244   -2.4675   -0.8713 H   0  0  0  0  0  0  0  0  0  0  0  0
    5.6848   -0.6715    0.7202 H   0  0  0  0  0  0  0  0  0  0  0  0
    3.3092    0.0570    0.7721 H   0  0  0  0  0  0  0  0  0  0  0  0
  1  2  1  0  0  0  0
  2 11  1  6  0  0  0
  3  2  1  0  0  0  0
  3 17  1  6  0  0  0
  4 23  1  1  0  0  0
  4  3  1  0  0  0  0
  5  1  1  0  0  0  0
  5  6  1  0  0  0  0
  6 31  1  0  0  0  0
  7  6  2  0  0  0  0
  7 32  1  0  0  0  0
  8  7  1  0  0  0  0
  9 10  1  0  0  0  0
  9  8  2  0  0  0  0
 10  5  2  0  0  0  0
 11 12  1  0  0  0  0
 12 13  2  0  0  0  0
 12 36  1  0  0  0  0
 13 37  1  0  0  0  0
 14 38  1  0  0  0  0
 14 13  1  0  0  0  0
 15 14  2  0  0  0  0
 16 15  1  0  0  0  0
 16 11  2  0  0  0  0
 17 18  1  0  0  0  0
 18 19  2  0  0  0  0
 18 41  1  0  0  0  0
 19 42  1  0  0  0  0
 20 43  1  0  0  0  0
 20 19  1  0  0  0  0
 21 20  2  0  0  0  0
 22 21  1  0  0  0  0
 22 17  2  0  0  0  0
 23 28  1  0  0  0  0
 24 23  2  0  0  0  0
 25 24  1  0  0  0  0
 25 26  2  0  0  0  0
 26 27  1  0  0  0  0
 27 28  2  0  0  0  0
 27 49  1  0  0  0  0
 28 50  1  0  0  0  0
 29  4  1  0  0  0  0
 29  1  2  0  0  0  0
 30 29  1  0  0  0  0
 33  8  1  0  0  0  0
 34  9  1  0  0  0  0
 35 10  1  0  0  0  0
 39 15  1  0  0  0  0
 40 16  1  0  0  0  0
 44 21  1  0  0  0  0
 45 22  1  0  0  0  0
 46 24  1  0  0  0  0
 47 25  1  0  0  0  0
 48 26  1  0  0  0  0
M  END
