7
 OpenBabel05122313113D

 22 22  0  0  1  0  0  0  0  0999 V2000
   -2.8346    2.5581    0.0709 N   0  0  0  0  0  0  0  0  0  0  0  0
   -1.1816   -0.4910   -0.4289 C   0  0  0  0  0  0  0  0  0  0  0  0
   -0.4654   -1.6600    0.0379 C   0  0  0  0  0  0  0  0  0  0  0  0
    0.7190   -2.0446   -0.6492 C   0  0  0  0  0  3  0  0  0  0  0  0
    1.2108   -1.3021   -1.7668 C   0  0  0  0  0  0  0  0  0  0  0  0
    0.5011   -0.1715   -2.2283 C   0  0  0  0  0  0  0  0  0  0  0  0
   -0.6908    0.2296   -1.5515 C   0  0  0  0  0  3  0  0  0  0  0  0
   -2.4689   -0.0488    0.2619 C   0  0  1  0  0  0  0  0  0  0  0  0
   -2.6546    1.4054    0.1718 C   0  0  0  0  0  0  0  0  0  0  0  0
   -3.7000   -0.7883   -0.3126 C   0  0  0  0  0  0  0  0  0  0  0  0
   -0.9346   -2.4640    1.2231 C   0  0  0  0  0  0  0  0  0  0  0  0
    1.2960   -2.9004   -0.2718 H   0  0  0  0  0  0  0  0  0  0  0  0
    2.1613   -1.5898   -2.2368 H   0  0  0  0  0  0  0  0  0  0  0  0
    0.8907    0.4330   -3.0583 H   0  0  0  0  0  0  0  0  0  0  0  0
   -1.2113    1.1469   -1.8630 H   0  0  0  0  0  0  0  0  0  0  0  0
   -2.3831   -0.2813    1.3439 H   0  0  0  0  0  0  0  0  0  0  0  0
   -3.5689   -1.8825   -0.2090 H   0  0  0  0  0  0  0  0  0  0  0  0
   -3.8247   -0.5540   -1.3875 H   0  0  0  0  0  0  0  0  0  0  0  0
   -4.6227   -0.4915    0.2218 H   0  0  0  0  0  0  0  0  0  0  0  0
   -1.1651   -1.8265    2.0987 H   0  0  0  0  0  0  0  0  0  0  0  0
   -0.1550   -3.1832    1.5361 H   0  0  0  0  0  0  0  0  0  0  0  0
   -1.8500   -3.0414    0.9766 H   0  0  0  0  0  0  0  0  0  0  0  0
  1  9  3  0  0  0  0
  2  3  2  0  0  0  0
  2  8  1  0  0  0  0
  3 11  1  0  0  0  0
  4 12  1  0  0  0  0
  4  3  1  0  0  0  0
  5  4  1  0  0  0  0
  6  5  2  0  0  0  0
  6  7  1  0  0  0  0
  7  2  1  0  0  0  0
  8 16  1  1  0  0  0
  9  8  1  0  0  0  0
 10 17  1  0  0  0  0
 10 19  1  0  0  0  0
 10  8  1  0  0  0  0
 11 21  1  0  0  0  0
 11 20  1  0  0  0  0
 13  5  1  0  0  0  0
 14  6  1  0  0  0  0
 15  7  1  0  0  0  0
 18 10  1  0  0  0  0
 22 11  1  0  0  0  0
M  END
