4
 OpenBabel05122313113D

 26 28  0  0  1  0  0  0  0  0999 V2000
    1.1437   -1.0769    0.3909 C   0  0  0  0  0  0  0  0  0  0  0  0
    0.2832   -2.1078    0.8417 C   0  0  0  0  0  0  0  0  0  0  0  0
    0.3472   -3.1048    0.3835 H   0  0  0  0  0  0  0  0  0  0  0  0
   -0.7769   -1.8220    1.7806 C   0  0  0  0  0  3  0  0  0  0  0  0
   -1.5087   -2.6028    2.0282 H   0  0  0  0  0  0  0  0  0  0  0  0
   -0.9287   -0.5116    2.3067 C   0  0  0  0  0  0  0  0  0  0  0  0
   -1.7827   -0.2662    2.9540 H   0  0  0  0  0  0  0  0  0  0  0  0
   -0.0572    0.5381    1.8456 C   0  0  0  0  0  0  0  0  0  0  0  0
   -0.2224    1.5689    2.1952 H   0  0  0  0  0  0  0  0  0  0  0  0
    0.9608    0.2789    0.8805 C   0  0  2  0  0  3  0  0  0  0  0  0
    1.8385    1.3571    0.2894 C   0  0  0  0  0  0  0  0  0  0  0  0
    1.3985    1.6192   -0.7031 H   0  0  0  0  0  0  0  0  0  0  0  0
    1.8204    2.2702    0.9155 H   0  0  0  0  0  0  0  0  0  0  0  0
    3.2514    0.8555    0.0848 C   0  0  0  0  0  0  0  0  0  0  0  0
    4.3795    1.6492    0.3503 C   0  0  0  0  0  0  0  0  0  0  0  0
    4.2425    2.6715    0.7375 H   0  0  0  0  0  0  0  0  0  0  0  0
    5.6720    1.1511    0.1251 C   0  0  0  0  0  0  0  0  0  0  0  0
    6.5483    1.7829    0.3347 H   0  0  0  0  0  0  0  0  0  0  0  0
    5.8424   -0.1552   -0.3581 C   0  0  0  0  0  0  0  0  0  0  0  0
    6.8533   -0.5544   -0.5306 H   0  0  0  0  0  0  0  0  0  0  0  0
    4.7200   -0.9581   -0.6131 C   0  0  0  0  0  0  0  0  0  0  0  0
    4.8510   -1.9871   -0.9839 H   0  0  0  0  0  0  0  0  0  0  0  0
    3.4228   -0.4618   -0.4020 C   0  0  0  0  0  0  0  0  0  0  0  0
    2.1857   -1.2874   -0.6800 C   0  0  0  0  0  0  0  0  0  0  0  0
    1.7224   -0.9542   -1.6405 H   0  0  0  0  0  0  0  0  0  0  0  0
    2.4270   -2.3619   -0.7883 H   0  0  0  0  0  0  0  0  0  0  0  0
  1  2  2  0  0  0  0
  2  4  1  0  0  0  0
  3  2  1  0  0  0  0
  4  5  1  0  0  0  0
  4  6  1  0  0  0  0
  6  7  1  0  0  0  0
  8  9  1  0  0  0  0
  8  6  2  0  0  0  0
 10  1  1  6  0  0  0
 10  8  1  0  0  0  0
 11 10  1  0  0  0  0
 11 13  1  0  0  0  0
 12 11  1  0  0  0  0
 14 11  1  0  0  0  0
 14 15  1  0  0  0  0
 15 16  1  0  0  0  0
 17 18  1  0  0  0  0
 17 15  2  0  0  0  0
 19 17  1  0  0  0  0
 20 19  1  0  0  0  0
 21 23  1  0  0  0  0
 21 19  2  0  0  0  0
 22 21  1  0  0  0  0
 23 14  2  0  0  0  0
 24 23  1  0  0  0  0
 24  1  1  0  0  0  0
 25 24  1  0  0  0  0
 26 24  1  0  0  0  0
M  END
