2
 OpenBabel05122313113D

 34 36  0  0  0  0  0  0  0  0999 V2000
    0.1374    0.6929   -0.3649 C   0  0  0  0  0  0  0  0  0  0  0  0
   -1.0616    0.3546   -0.4043 C   0  0  0  0  0  3  0  0  0  0  0  0
    1.4652    1.1769   -0.2903 C   0  0  0  0  0  0  0  0  0  0  0  0
    2.5762    0.3231   -0.2232 C   0  0  0  0  0  0  0  0  0  0  0  0
    3.8949    0.8478   -0.1306 C   0  0  0  0  0  0  0  0  0  0  0  0
    5.0839   -0.0478   -0.0598 C   0  0  0  0  0  0  0  0  0  0  0  0
    6.3705    0.5286    0.0744 C   0  0  0  0  0  0  0  0  0  0  0  0
    7.5150   -0.2659    0.1465 C   0  0  0  0  0  0  0  0  0  0  0  0
    7.3768   -1.6607    0.0825 C   0  0  0  0  0  0  0  0  0  0  0  0
    8.5823   -2.5128    0.1583 N   0  0  0  0  0  0  0  0  0  0  0  0
    9.6718   -1.9490    0.2763 O   0  0  0  0  0  0  0  0  0  0  0  0
    8.4221   -3.7340    0.0988 O   0  0  0  0  0  0  0  0  0  0  0  0
    6.1208   -2.2672   -0.0525 C   0  0  0  0  0  0  0  0  0  0  0  0
    4.9836   -1.4582   -0.1228 C   0  0  0  0  0  0  0  0  0  0  0  0
    4.1409    2.1628   -0.0985 N   0  0  0  0  0  0  0  0  0  0  0  0
    3.0948    3.0257   -0.1618 C   0  0  0  0  0  0  0  0  0  0  0  0
    3.3588    4.4324   -0.1242 C   0  0  0  0  0  0  0  0  0  0  0  0
    2.3322    5.3539   -0.1825 C   0  0  0  0  0  0  0  0  0  0  0  0
    0.9753    4.9187   -0.2845 C   0  0  0  0  0  0  0  0  0  0  0  0
    0.0473    5.9136   -0.3350 O   0  0  0  0  0  0  0  0  0  0  0  0
   -1.3133    5.5431   -0.4363 C   0  0  0  0  0  0  0  0  0  0  0  0
    0.6793    3.5567   -0.3253 C   0  0  0  0  0  0  0  0  0  0  0  0
    1.7248    2.6000   -0.2632 C   0  0  0  0  0  0  0  0  0  0  0  0
    2.3960   -0.7595   -0.2388 H   0  0  0  0  0  0  0  0  0  0  0  0
    6.4289    1.6250    0.1189 H   0  0  0  0  0  0  0  0  0  0  0  0
    8.5201    0.1638    0.2517 H   0  0  0  0  0  0  0  0  0  0  0  0
    6.0630   -3.3625   -0.1008 H   0  0  0  0  0  0  0  0  0  0  0  0
    4.0032   -1.9417   -0.2324 H   0  0  0  0  0  0  0  0  0  0  0  0
    4.4095    4.7472   -0.0469 H   0  0  0  0  0  0  0  0  0  0  0  0
    2.5248    6.4364   -0.1537 H   0  0  0  0  0  0  0  0  0  0  0  0
   -1.6427    4.9334    0.4359 H   0  0  0  0  0  0  0  0  0  0  0  0
   -1.8958    6.4826   -0.4621 H   0  0  0  0  0  0  0  0  0  0  0  0
   -1.5165    4.9624   -1.3648 H   0  0  0  0  0  0  0  0  0  0  0  0
   -0.3478    3.1767   -0.4090 H   0  0  0  0  0  0  0  0  0  0  0  0
  1  3  1  0  0  0  0
  2  1  3  0  0  0  0
  3 23  2  0  0  0  0
  3  4  1  0  0  0  0
  4  5  2  0  0  0  0
  5 15  1  0  0  0  0
  5  6  1  0  0  0  0
  6  7  1  0  0  0  0
  7 25  1  0  0  0  0
  7  8  2  0  0  0  0
  8 26  1  0  0  0  0
  9  8  1  0  0  0  0
  9 10  1  0  0  0  0
 10 11  2  0  0  0  0
 12 10  2  0  0  0  0
 13  9  2  0  0  0  0
 14  6  2  0  0  0  0
 14 13  1  0  0  0  0
 16 17  1  0  0  0  0
 16 15  2  0  0  0  0
 17 29  1  0  0  0  0
 18 30  1  0  0  0  0
 18 17  2  0  0  0  0
 19 18  1  0  0  0  0
 20 19  1  0  0  0  0
 21 20  1  0  0  0  0
 21 31  1  0  0  0  0
 22 19  2  0  0  0  0
 22 23  1  0  0  0  0
 23 16  1  0  0  0  0
 24  4  1  0  0  0  0
 27 13  1  0  0  0  0
 28 14  1  0  0  0  0
 32 21  1  0  0  0  0
 33 21  1  0  0  0  0
 34 22  1  0  0  0  0
M  END
