5
 OpenBabel05122313113D

 19 19  0  0  0  0  0  0  0  0999 V2000
   -3.3833   -1.8270   -0.4142 N   0  0  0  0  0  0  0  0  0  0  0  0
   -3.8867    0.2939    0.3941 N   0  0  0  0  0  0  0  0  0  0  0  0
   -3.6603    1.4252    1.2651 C   0  0  0  0  0  0  0  0  0  0  0  0
   -3.0151   -0.7830    0.3130 C   0  0  0  0  0  0  0  0  0  0  0  0
   -1.7411   -0.7199    1.0329 C   0  0  0  0  0  3  0  0  0  0  0  0
   -0.9509   -1.9467    1.1191 C   0  0  0  0  0  3  0  0  0  0  0  0
   -1.4674   -3.0978    0.3884 C   0  0  0  0  0  0  0  0  0  0  0  0
   -2.6030   -2.9567   -0.3728 C   0  0  0  0  0  0  0  0  0  0  0  0
   -5.2085    0.1965   -0.1925 C   0  0  0  0  0  0  0  0  0  0  0  0
   -4.0683    1.2660    2.2930 H   0  0  0  0  0  0  0  0  0  0  0  0
   -2.5850    1.6636    1.3478 H   0  0  0  0  0  0  0  0  0  0  0  0
   -4.1590    2.3193    0.8382 H   0  0  0  0  0  0  0  0  0  0  0  0
   -1.6928   -0.0412    1.8983 H   0  0  0  0  0  0  0  0  0  0  0  0
   -0.4392   -2.1478    2.0765 H   0  0  0  0  0  0  0  0  0  0  0  0
   -0.9603   -4.0737    0.4450 H   0  0  0  0  0  0  0  0  0  0  0  0
   -2.9750   -3.8036   -0.9754 H   0  0  0  0  0  0  0  0  0  0  0  0
   -5.4208    1.0876   -0.8238 H   0  0  0  0  0  0  0  0  0  0  0  0
   -5.2361   -0.7212   -0.8079 H   0  0  0  0  0  0  0  0  0  0  0  0
   -6.0007    0.1341    0.5897 H   0  0  0  0  0  0  0  0  0  0  0  0
  1  8  1  0  0  0  0
  1  4  2  0  0  0  0
  2  3  1  0  0  0  0
  3 11  1  0  0  0  0
  3 10  1  0  0  0  0
  4  2  1  0  0  0  0
  4  5  1  0  0  0  0
  5  6  1  0  0  0  0
  5 13  1  0  0  0  0
  6 14  1  0  0  0  0
  7 15  1  0  0  0  0
  7  6  1  0  0  0  0
  8  7  2  0  0  0  0
  9  2  1  0  0  0  0
  9 19  1  0  0  0  0
 12  3  1  0  0  0  0
 16  8  1  0  0  0  0
 17  9  1  0  0  0  0
 18  9  1  0  0  0  0
M  END
