2
 OpenBabel05122313113D

 16 16  0  0  0  0  0  0  0  0999 V2000
   -0.3328   -1.3074   -1.3421 C   0  0  0  0  0  3  0  0  0  0  0  0
    0.4944   -0.7236   -0.5704 C   0  0  0  0  0  3  0  0  0  0  0  0
    1.8612   -0.5417   -0.0443 C   0  0  0  0  0  0  0  0  0  0  0  0
    2.0752    0.8289    0.2757 O   0  0  0  0  0  0  0  0  0  0  0  0
    3.3625    1.0183    0.8593 C   0  0  0  0  0  0  0  0  0  0  0  0
    4.4579    0.5015   -0.0754 C   0  0  0  0  0  0  0  0  0  0  0  0
    4.1248   -0.9382   -0.4721 C   0  0  0  0  0  0  0  0  0  0  0  0
    2.7973   -1.0190   -0.9862 O   0  0  0  0  0  0  0  0  0  0  0  0
   -0.5675   -2.0189   -2.1350 H   0  0  0  0  0  0  0  0  0  0  0  0
    1.9665   -1.1337    0.9102 H   0  0  0  0  0  0  0  0  0  0  0  0
    3.4623    2.1030    1.0612 H   0  0  0  0  0  0  0  0  0  0  0  0
    3.4121    0.4809    1.8400 H   0  0  0  0  0  0  0  0  0  0  0  0
    4.4895    1.1337   -0.9870 H   0  0  0  0  0  0  0  0  0  0  0  0
    5.4515    0.5554    0.4166 H   0  0  0  0  0  0  0  0  0  0  0  0
    4.7956   -1.3183   -1.2675 H   0  0  0  0  0  0  0  0  0  0  0  0
    4.2295   -1.6118    0.4164 H   0  0  0  0  0  0  0  0  0  0  0  0
  1  2  2  0  0  0  0
  2  3  1  0  0  0  0
  3  4  1  0  0  0  0
  3 10  1  0  0  0  0
  4  5  1  0  0  0  0
  5 11  1  0  0  0  0
  5 12  1  0  0  0  0
  6 14  1  0  0  0  0
  6  5  1  0  0  0  0
  7  6  1  0  0  0  0
  7 16  1  0  0  0  0
  8  7  1  0  0  0  0
  8  3  1  0  0  0  0
  9  1  1  0  0  0  0
 13  6  1  0  0  0  0
 15  7  1  0  0  0  0
M  END
