3
 OpenBabel05122313113D

 60 63  0  0  0  0  0  0  0  0999 V2000
    1.0316    0.6462    1.1626 N   0  0  0  0  0  0  0  0  0  0  0  0
   -1.0841    0.5525    0.7352 N   0  0  0  0  0  0  0  0  0  0  0  0
    0.1370    0.2577    0.2036 C   0  0  0  0  0  2  0  0  0  0  0  0
    2.4567    0.5044    1.0230 C   0  0  0  0  0  0  0  0  0  0  0  0
    3.1585    1.4528    0.2402 C   0  0  0  0  0  0  0  0  0  0  0  0
    2.4494    2.6275   -0.4196 C   0  0  0  0  0  0  0  0  0  0  0  0
    1.3849    2.3524   -0.5592 H   0  0  0  0  0  0  0  0  0  0  0  0
    2.9859    2.9373   -1.8227 C   0  0  0  0  0  0  0  0  0  0  0  0
    2.3356    3.6882   -2.3126 H   0  0  0  0  0  0  0  0  0  0  0  0
    2.9734    2.0298   -2.4579 H   0  0  0  0  0  0  0  0  0  0  0  0
    4.0187    3.3444   -1.8032 H   0  0  0  0  0  0  0  0  0  0  0  0
    2.5026    3.8643    0.4962 C   0  0  0  0  0  0  0  0  0  0  0  0
    2.0477    3.6583    1.4864 H   0  0  0  0  0  0  0  0  0  0  0  0
    1.9499    4.7097    0.0380 H   0  0  0  0  0  0  0  0  0  0  0  0
    3.5499    4.1910    0.6678 H   0  0  0  0  0  0  0  0  0  0  0  0
    4.5519    1.2858    0.1255 C   0  0  0  0  0  0  0  0  0  0  0  0
    5.1299    2.0033   -0.4747 H   0  0  0  0  0  0  0  0  0  0  0  0
    5.2089    0.2214    0.7552 C   0  0  0  0  0  0  0  0  0  0  0  0
    6.2993    0.1120    0.6513 H   0  0  0  0  0  0  0  0  0  0  0  0
    4.4837   -0.7122    1.5060 C   0  0  0  0  0  0  0  0  0  0  0  0
    5.0090   -1.5541    1.9805 H   0  0  0  0  0  0  0  0  0  0  0  0
    3.0882   -0.5976    1.6497 C   0  0  0  0  0  0  0  0  0  0  0  0
    2.2982   -1.6196    2.4596 C   0  0  0  0  0  0  0  0  0  0  0  0
    1.2386   -1.5435    2.1376 H   0  0  0  0  0  0  0  0  0  0  0  0
    2.7507   -3.0652    2.2019 C   0  0  0  0  0  0  0  0  0  0  0  0
    2.7645   -3.3030    1.1207 H   0  0  0  0  0  0  0  0  0  0  0  0
    2.0620   -3.7760    2.7021 H   0  0  0  0  0  0  0  0  0  0  0  0
    3.7656   -3.2591    2.6057 H   0  0  0  0  0  0  0  0  0  0  0  0
    2.3598   -1.2951    3.9642 C   0  0  0  0  0  0  0  0  0  0  0  0
    3.4055   -1.3442    4.3324 H   0  0  0  0  0  0  0  0  0  0  0  0
    1.7577   -2.0208    4.5488 H   0  0  0  0  0  0  0  0  0  0  0  0
    1.9755   -0.2801    4.1836 H   0  0  0  0  0  0  0  0  0  0  0  0
    0.3760    1.1895    2.2673 C   0  0  0  0  0  0  0  0  0  0  0  0
    0.9202    1.5885    3.1271 H   0  0  0  0  0  0  0  0  0  0  0  0
   -0.9671    1.1209    1.9967 C   0  0  0  0  0  0  0  0  0  0  0  0
   -1.8380    1.4427    2.5739 H   0  0  0  0  0  0  0  0  0  0  0  0
   -2.3262    0.2235    0.0069 C   0  0  0  0  0  0  0  0  0  0  0  0
   -2.1117    0.5472   -1.0360 H   0  0  0  0  0  0  0  0  0  0  0  0
   -3.4837    1.0637    0.5202 C   0  0  0  0  0  0  0  0  0  0  0  0
   -4.4531    0.5591    1.4055 C   0  0  0  0  0  0  0  0  0  0  0  0
   -4.4086   -0.4959    1.7157 H   0  0  0  0  0  0  0  0  0  0  0  0
   -5.4786    1.3933    1.8807 C   0  0  0  0  0  0  0  0  0  0  0  0
   -6.2356    0.9898    2.5704 H   0  0  0  0  0  0  0  0  0  0  0  0
   -5.5422    2.7345    1.4729 C   0  0  0  0  0  0  0  0  0  0  0  0
   -6.3484    3.3860    1.8432 H   0  0  0  0  0  0  0  0  0  0  0  0
   -4.5795    3.2412    0.5828 C   0  0  0  0  0  0  0  0  0  0  0  0
   -4.6316    4.2895    0.2516 H   0  0  0  0  0  0  0  0  0  0  0  0
   -3.5563    2.4106    0.1072 C   0  0  0  0  0  0  0  0  0  0  0  0
   -2.7983    2.7907   -0.5972 H   0  0  0  0  0  0  0  0  0  0  0  0
   -2.5535   -1.2785   -0.0077 C   0  0  0  0  0  0  0  0  0  0  0  0
   -2.1663   -2.1049    1.0641 C   0  0  0  0  0  0  0  0  0  0  0  0
   -1.6787   -1.6615    1.9463 H   0  0  0  0  0  0  0  0  0  0  0  0
   -2.3725   -3.4920    1.0053 C   0  0  0  0  0  0  0  0  0  0  0  0
   -2.0594   -4.1271    1.8482 H   0  0  0  0  0  0  0  0  0  0  0  0
   -2.9696   -4.0691   -0.1266 C   0  0  0  0  0  0  0  0  0  0  0  0
   -3.1256   -5.1574   -0.1759 H   0  0  0  0  0  0  0  0  0  0  0  0
   -3.3606   -3.2500   -1.1987 C   0  0  0  0  0  0  0  0  0  0  0  0
   -3.8221   -3.6949   -2.0935 H   0  0  0  0  0  0  0  0  0  0  0  0
   -3.1517   -1.8645   -1.1393 C   0  0  0  0  0  0  0  0  0  0  0  0
   -3.4381   -1.2238   -1.9878 H   0  0  0  0  0  0  0  0  0  0  0  0
  1 33  1  0  0  0  0
  2 35  1  0  0  0  0
  3  2  1  0  0  0  0
  3  1  1  0  0  0  0
  4  1  1  0  0  0  0
  4 22  1  0  0  0  0
  5  4  2  0  0  0  0
  6  5  1  0  0  0  0
  6 12  1  0  0  0  0
  7  6  1  0  0  0  0
  8 11  1  0  0  0  0
  8  6  1  0  0  0  0
  9  8  1  0  0  0  0
 10  8  1  0  0  0  0
 12 15  1  0  0  0  0
 12 13  1  0  0  0  0
 14 12  1  0  0  0  0
 16  5  1  0  0  0  0
 16 18  2  0  0  0  0
 17 16  1  0  0  0  0
 18 20  1  0  0  0  0
 19 18  1  0  0  0  0
 20 22  2  0  0  0  0
 20 21  1  0  0  0  0
 22 23  1  0  0  0  0
 23 29  1  0  0  0  0
 24 23  1  0  0  0  0
 25 23  1  0  0  0  0
 25 28  1  0  0  0  0
 25 27  1  0  0  0  0
 26 25  1  0  0  0  0
 29 32  1  0  0  0  0
 29 30  1  0  0  0  0
 29 31  1  0  0  0  0
 33 34  1  0  0  0  0
 35 33  2  0  0  0  0
 35 36  1  0  0  0  0
 37 39  1  0  0  0  0
 37  2  1  0  0  0  0
 38 37  1  0  0  0  0
 39 40  1  0  0  0  0
 40 41  1  0  0  0  0
 40 42  2  0  0  0  0
 42 43  1  0  0  0  0
 44 45  1  0  0  0  0
 44 42  1  0  0  0  0
 46 44  2  0  0  0  0
 47 46  1  0  0  0  0
 48 39  2  0  0  0  0
 48 46  1  0  0  0  0
 49 48  1  0  0  0  0
 50 37  1  0  0  0  0
 50 51  1  0  0  0  0
 51 52  1  0  0  0  0
 53 51  2  0  0  0  0
 53 54  1  0  0  0  0
 55 53  1  0  0  0  0
 56 55  1  0  0  0  0
 57 59  1  0  0  0  0
 57 55  2  0  0  0  0
 58 57  1  0  0  0  0
 59 50  2  0  0  0  0
 60 59  1  0  0  0  0
M  END
