2
 OpenBabel05122313113D

 27 27  0  0  0  0  0  0  0  0999 V2000
   -1.5912    2.6023    0.0269 Si  0  0  0  0  0  0  0  0  0  0  0  0
   -0.7907    0.9088    0.0043 C   0  0  0  0  0  3  0  0  0  0  0  0
   -1.2588   -0.3569   -0.0032 C   0  0  0  0  0  0  0  0  0  0  0  0
   -0.2695    3.9619    0.1168 C   0  0  0  0  0  0  0  0  0  0  0  0
   -2.5762    2.9016   -1.5714 C   0  0  0  0  0  0  0  0  0  0  0  0
   -2.6942    2.8191    1.5587 C   0  0  0  0  0  0  0  0  0  0  0  0
   -2.5759   -1.0176   -0.0037 C   0  0  0  0  0  0  0  0  0  0  0  0
   -3.8003   -0.3122   -0.0687 C   0  0  0  0  0  0  0  0  0  0  0  0
   -5.0216   -0.9961   -0.0644 C   0  0  0  0  0  0  0  0  0  0  0  0
   -5.0501   -2.3998    0.0044 C   0  0  0  0  0  0  0  0  0  0  0  0
   -3.8432   -3.1148    0.0652 C   0  0  0  0  0  0  0  0  0  0  0  0
   -2.6201   -2.4327    0.0595 C   0  0  0  0  0  0  0  0  0  0  0  0
   -0.4952   -1.2123   -0.0083 H   0  0  0  0  0  0  0  0  0  0  0  0
    0.2734    3.9458    1.0827 H   0  0  0  0  0  0  0  0  0  0  0  0
    0.4761    3.8771   -0.6987 H   0  0  0  0  0  0  0  0  0  0  0  0
   -0.7540    4.9562    0.0260 H   0  0  0  0  0  0  0  0  0  0  0  0
   -1.9019    2.9097   -2.4525 H   0  0  0  0  0  0  0  0  0  0  0  0
   -3.3485    2.1293   -1.7554 H   0  0  0  0  0  0  0  0  0  0  0  0
   -3.0792    3.8902   -1.5278 H   0  0  0  0  0  0  0  0  0  0  0  0
   -3.4954    2.0581    1.6285 H   0  0  0  0  0  0  0  0  0  0  0  0
   -2.0885    2.7478    2.4857 H   0  0  0  0  0  0  0  0  0  0  0  0
   -3.1688    3.8225    1.5468 H   0  0  0  0  0  0  0  0  0  0  0  0
   -3.7935    0.7832   -0.1290 H   0  0  0  0  0  0  0  0  0  0  0  0
   -5.9630   -0.4280   -0.1170 H   0  0  0  0  0  0  0  0  0  0  0  0
   -6.0123   -2.9341    0.0078 H   0  0  0  0  0  0  0  0  0  0  0  0
   -3.8543   -4.2142    0.1165 H   0  0  0  0  0  0  0  0  0  0  0  0
   -1.6715   -2.9923    0.1047 H   0  0  0  0  0  0  0  0  0  0  0  0
  1  4  1  0  0  0  0
  1  6  1  0  0  0  0
  2  1  1  0  0  0  0
  3  2  2  0  0  0  0
  4 14  1  0  0  0  0
  5 19  1  0  0  0  0
  5  1  1  0  0  0  0
  6 20  1  0  0  0  0
  6 21  1  0  0  0  0
  7  3  1  0  0  0  0
  7 12  1  0  0  0  0
  8  9  1  0  0  0  0
  8  7  2  0  0  0  0
  9 10  2  0  0  0  0
 10 25  1  0  0  0  0
 10 11  1  0  0  0  0
 11 26  1  0  0  0  0
 12 11  2  0  0  0  0
 12 27  1  0  0  0  0
 13  3  1  0  0  0  0
 15  4  1  0  0  0  0
 16  4  1  0  0  0  0
 17  5  1  0  0  0  0
 18  5  1  0  0  0  0
 22  6  1  0  0  0  0
 23  8  1  0  0  0  0
 24  9  1  0  0  0  0
M  END
