1
 OpenBabel05122313113D

 15 15  0  0  0  0  0  0  0  0999 V2000
    1.5272    0.0000   -1.2656 C   0  0  0  0  0  1  0  0  0  0  0  0
    2.9539    0.0000   -1.1867 C   0  0  0  0  0  0  0  0  0  0  0  0
    3.7561    0.0001   -2.3610 C   0  0  0  0  0  0  0  0  0  0  0  0
    5.1486    0.0001   -2.2688 C   0  0  0  0  0  0  0  0  0  0  0  0
    5.8020    0.0001   -1.0145 C   0  0  0  0  0  0  0  0  0  0  0  0
    5.0032    0.0000    0.1476 C   0  0  0  0  0  0  0  0  0  0  0  0
    3.6075    0.0000    0.0741 C   0  0  0  0  0  0  0  0  0  0  0  0
    7.3066    0.0001   -0.9346 C   0  0  0  0  0  0  0  0  0  0  0  0
    3.2592    0.0001   -3.3425 H   0  0  0  0  0  0  0  0  0  0  0  0
    5.7516    0.0002   -3.1911 H   0  0  0  0  0  0  0  0  0  0  0  0
    5.4880   -0.0000    1.1368 H   0  0  0  0  0  0  0  0  0  0  0  0
    3.0032   -0.0000    0.9918 H   0  0  0  0  0  0  0  0  0  0  0  0
    7.7375    0.8899   -1.4402 H   0  0  0  0  0  0  0  0  0  0  0  0
    7.7375   -0.8902   -1.4395 H   0  0  0  0  0  0  0  0  0  0  0  0
    7.6614    0.0005    0.1141 H   0  0  0  0  0  0  0  0  0  0  0  0
  1  2  1  0  0  0  0
  2  7  1  0  0  0  0
  3  4  1  0  0  0  0
  3  2  2  0  0  0  0
  4  5  2  0  0  0  0
  5  8  1  0  0  0  0
  5  6  1  0  0  0  0
  6 11  1  0  0  0  0
  7  6  2  0  0  0  0
  7 12  1  0  0  0  0
  8 15  1  0  0  0  0
  9  3  1  0  0  0  0
 10  4  1  0  0  0  0
 13  8  1  0  0  0  0
 14  8  1  0  0  0  0
M  END
