16
 OpenBabel05122313113D

 28 30  0  0  0  0  0  0  0  0999 V2000
    3.3987   -1.0417    0.1244 N   0  0  0  0  0  0  0  0  0  0  0  0
    3.4794    0.3502    0.1533 C   0  0  0  0  0  0  0  0  0  0  0  0
    4.3563    1.2032   -0.5360 C   0  0  0  0  0  0  0  0  0  0  0  0
    5.1218    0.8103   -1.2202 H   0  0  0  0  0  0  0  0  0  0  0  0
    4.2205    2.5842   -0.3267 C   0  0  0  0  0  0  0  0  0  0  0  0
    4.8938    3.2748   -0.8564 H   0  0  0  0  0  0  0  0  0  0  0  0
    3.2425    3.1035    0.5493 C   0  0  0  0  0  0  0  0  0  0  0  0
    3.1664    4.1915    0.6918 H   0  0  0  0  0  0  0  0  0  0  0  0
    2.3694    2.2495    1.2369 C   0  0  0  0  0  0  0  0  0  0  0  0
    1.6085    2.6521    1.9207 H   0  0  0  0  0  0  0  0  0  0  0  0
    2.4741    0.8629    1.0317 C   0  0  0  0  0  0  0  0  0  0  0  0
    1.7539   -0.2852    1.5451 C   0  0  0  0  0  0  0  0  0  0  0  0
    2.3642   -1.4466    0.9595 C   0  0  0  0  0  0  0  0  0  0  0  0
    1.8680   -2.7566    1.2320 C   0  0  0  0  0  3  0  0  0  0  0  0
    2.2637   -3.6414    0.7170 H   0  0  0  0  0  0  0  0  0  0  0  0
    0.8783   -2.8998    2.2490 C   0  0  0  0  0  3  0  0  0  0  0  0
    0.5176   -3.9032    2.5117 H   0  0  0  0  0  0  0  0  0  0  0  0
    0.3140   -1.7487    2.8892 C   0  0  0  0  0  0  0  0  0  0  0  0
   -0.4958   -1.8806    3.6202 H   0  0  0  0  0  0  0  0  0  0  0  0
    0.6871   -0.4464    2.4889 C   0  0  0  0  0  0  0  0  0  0  0  0
    0.1966    0.4321    2.9267 H   0  0  0  0  0  0  0  0  0  0  0  0
    4.2173   -1.9038   -0.7141 C   0  0  0  0  0  0  0  0  0  0  0  0
    4.2017   -2.9174   -0.2662 H   0  0  0  0  0  0  0  0  0  0  0  0
    5.2671   -1.5491   -0.6341 H   0  0  0  0  0  0  0  0  0  0  0  0
    3.7745   -1.9519   -2.1781 C   0  0  0  0  0  0  0  0  0  0  0  0
    2.7487   -2.3544   -2.2807 H   0  0  0  0  0  0  0  0  0  0  0  0
    4.4629   -2.5958   -2.7614 H   0  0  0  0  0  0  0  0  0  0  0  0
    3.7904   -0.9407   -2.6317 H   0  0  0  0  0  0  0  0  0  0  0  0
  1  2  1  0  0  0  0
  1 13  1  0  0  0  0
  2 11  1  0  0  0  0
  3  5  1  0  0  0  0
  3  2  2  0  0  0  0
  4  3  1  0  0  0  0
  5  7  2  0  0  0  0
  6  5  1  0  0  0  0
  7  8  1  0  0  0  0
  7  9  1  0  0  0  0
  9 10  1  0  0  0  0
 11  9  2  0  0  0  0
 11 12  1  0  0  0  0
 12 20  1  0  0  0  0
 13 14  1  0  0  0  0
 13 12  2  0  0  0  0
 14 16  1  0  0  0  0
 15 14  1  0  0  0  0
 16 17  1  0  0  0  0
 16 18  1  0  0  0  0
 18 19  1  0  0  0  0
 20 18  2  0  0  0  0
 20 21  1  0  0  0  0
 22 24  1  0  0  0  0
 22 23  1  0  0  0  0
 22  1  1  0  0  0  0
 25 22  1  0  0  0  0
 26 25  1  0  0  0  0
 27 25  1  0  0  0  0
 28 25  1  0  0  0  0
M  END
