3
 OpenBabel05122313113D

 26 28  0  0  1  0  0  0  0  0999 V2000
    2.3141   -1.0046    1.1214 O   0  0  0  0  0  0  0  0  0  0  0  0
    1.5986    1.3180   -0.6223 N   0  0  0  0  0  0  0  0  0  0  0  0
    0.8820    0.2180   -0.3860 C   0  0  0  0  0  2  0  0  0  0  0  0
    3.0736    1.1544   -0.7047 C   0  0  0  0  0  0  0  0  0  0  0  0
    3.2623   -0.3471   -0.8982 C   0  0  1  0  0  0  0  0  0  0  0  0
    4.3148   -1.0936   -0.0456 C   0  0  0  0  0  0  0  0  0  0  0  0
    3.3759   -1.9439    0.8894 C   0  0  2  0  0  0  0  0  0  0  0  0
    2.6941   -2.9975    0.0245 C   0  0  0  0  0  0  0  0  0  0  0  0
    1.7609   -2.3341   -0.6900 C   0  0  0  0  0  0  0  0  0  0  0  0
    1.9176   -0.8868   -0.2633 C   0  0  1  0  0  0  0  0  0  0  0  0
    1.0746    2.6835   -0.6772 C   0  0  0  0  0  0  0  0  0  0  0  0
    1.4886    3.4988    0.5197 C   0  0  0  0  0  0  0  0  0  0  0  0
    2.2124    4.6280    0.4485 C   0  0  0  0  0  0  0  0  0  0  0  0
    3.3205   -0.5950   -1.9753 H   0  0  0  0  0  0  0  0  0  0  0  0
    3.8225   -2.2728    1.8453 H   0  0  0  0  0  0  0  0  0  0  0  0
    2.9947   -4.0502   -0.0605 H   0  0  0  0  0  0  0  0  0  0  0  0
    1.1260   -2.7032   -1.5039 H   0  0  0  0  0  0  0  0  0  0  0  0
    1.1402    3.1209    1.4966 H   0  0  0  0  0  0  0  0  0  0  0  0
    3.5238    1.5283    0.2387 H   0  0  0  0  0  0  0  0  0  0  0  0
    3.4627    1.7772   -1.5357 H   0  0  0  0  0  0  0  0  0  0  0  0
    5.0059   -1.7150   -0.6459 H   0  0  0  0  0  0  0  0  0  0  0  0
    4.9183   -0.3965    0.5681 H   0  0  0  0  0  0  0  0  0  0  0  0
   -0.0274    2.5965   -0.7295 H   0  0  0  0  0  0  0  0  0  0  0  0
    1.4338    3.1604   -1.6142 H   0  0  0  0  0  0  0  0  0  0  0  0
    2.4654    5.2053    1.3510 H   0  0  0  0  0  0  0  0  0  0  0  0
    2.5654    5.0266   -0.5179 H   0  0  0  0  0  0  0  0  0  0  0  0
  2  3  1  0  0  0  0
  4  2  1  0  0  0  0
  4 19  1  0  0  0  0
  5 14  1  6  0  0  0
  5  4  1  0  0  0  0
  5 10  1  0  0  0  0
  5  6  1  0  0  0  0
  6 22  1  0  0  0  0
  6  7  1  0  0  0  0
  7  1  1  0  0  0  0
  7 15  1  1  0  0  0
  8  7  1  0  0  0  0
  9 10  1  0  0  0  0
  9  8  2  0  0  0  0
 10  3  1  6  0  0  0
 10  1  1  0  0  0  0
 11  2  1  0  0  0  0
 11 12  1  0  0  0  0
 12 18  1  0  0  0  0
 13 12  2  0  0  0  0
 13 25  1  0  0  0  0
 16  8  1  0  0  0  0
 17  9  1  0  0  0  0
 20  4  1  0  0  0  0
 21  6  1  0  0  0  0
 23 11  1  0  0  0  0
 24 11  1  0  0  0  0
 26 13  1  0  0  0  0
M  END
