1
 OpenBabel05122313113D

 43 45  0  0  0  0  0  0  0  0999 V2000
   -1.2413    0.7164   -0.0365 C   0  0  0  0  0  2  0  0  0  0  0  0
   -3.5120    0.2794    0.0906 C   0  0  0  0  0  0  0  0  0  0  0  0
   -4.3913   -0.3636    0.1691 H   0  0  0  0  0  0  0  0  0  0  0  0
   -3.3977    1.6506    0.0044 C   0  0  0  0  0  0  0  0  0  0  0  0
   -4.3017    2.7549   -0.0176 C   0  0  0  0  0  0  0  0  0  0  0  0
   -5.3799    2.5556    0.0437 H   0  0  0  0  0  0  0  0  0  0  0  0
   -3.8029    4.0340   -0.1138 C   0  0  0  0  0  0  0  0  0  0  0  0
   -4.4841    4.8963   -0.1314 H   0  0  0  0  0  0  0  0  0  0  0  0
   -2.3861    4.2657   -0.1939 C   0  0  0  0  0  0  0  0  0  0  0  0
   -1.9598    5.2731   -0.2740 H   0  0  0  0  0  0  0  0  0  0  0  0
   -1.5375    3.1951   -0.1719 C   0  0  0  0  0  0  0  0  0  0  0  0
   -1.9973   -1.6636    0.1433 C   0  0  0  0  0  0  0  0  0  0  0  0
   -1.8277   -2.2461    1.4217 C   0  0  0  0  0  0  0  0  0  0  0  0
   -1.6425   -3.6407    1.4728 C   0  0  0  0  0  0  0  0  0  0  0  0
   -1.5053   -4.1293    2.4491 H   0  0  0  0  0  0  0  0  0  0  0  0
   -1.6141   -4.4092    0.3016 C   0  0  0  0  0  0  0  0  0  0  0  0
   -1.4671   -5.4983    0.3647 H   0  0  0  0  0  0  0  0  0  0  0  0
   -1.7586   -3.7966   -0.9501 C   0  0  0  0  0  0  0  0  0  0  0  0
   -1.7123   -4.4067   -1.8647 H   0  0  0  0  0  0  0  0  0  0  0  0
   -1.9473   -2.4057   -1.0601 C   0  0  0  0  0  0  0  0  0  0  0  0
   -1.8062   -1.4106    2.6943 C   0  0  0  0  0  0  0  0  0  0  0  0
   -1.7848   -0.3431    2.3984 H   0  0  0  0  0  0  0  0  0  0  0  0
   -0.5285   -1.6576    3.5118 C   0  0  0  0  0  0  0  0  0  0  0  0
   -0.4710   -2.6999    3.8887 H   0  0  0  0  0  0  0  0  0  0  0  0
   -0.5023   -0.9792    4.3877 H   0  0  0  0  0  0  0  0  0  0  0  0
    0.3730   -1.4455    2.9047 H   0  0  0  0  0  0  0  0  0  0  0  0
   -3.0780   -1.6465    3.5272 C   0  0  0  0  0  0  0  0  0  0  0  0
   -3.9929   -1.4102    2.9466 H   0  0  0  0  0  0  0  0  0  0  0  0
   -3.0737   -1.0080    4.4339 H   0  0  0  0  0  0  0  0  0  0  0  0
   -3.1534   -2.7036    3.8578 H   0  0  0  0  0  0  0  0  0  0  0  0
   -2.0506   -1.7411   -2.4258 C   0  0  0  0  0  0  0  0  0  0  0  0
   -2.0344   -0.6442   -2.2708 H   0  0  0  0  0  0  0  0  0  0  0  0
   -3.3783   -2.1016   -3.1141 C   0  0  0  0  0  0  0  0  0  0  0  0
   -3.4526   -3.1932   -3.3022 H   0  0  0  0  0  0  0  0  0  0  0  0
   -3.4631   -1.5843   -4.0914 H   0  0  0  0  0  0  0  0  0  0  0  0
   -4.2498   -1.8077   -2.4944 H   0  0  0  0  0  0  0  0  0  0  0  0
   -0.8360   -2.0735   -3.3072 C   0  0  0  0  0  0  0  0  0  0  0  0
    0.1054   -1.7677   -2.8107 H   0  0  0  0  0  0  0  0  0  0  0  0
   -0.8981   -1.5180   -4.2642 H   0  0  0  0  0  0  0  0  0  0  0  0
   -0.7814   -3.1559   -3.5465 H   0  0  0  0  0  0  0  0  0  0  0  0
   -0.2130    3.3203   -0.2474 F   0  0  0  0  0  0  0  0  0  0  0  0
   -2.2235   -0.2473    0.0636 N   0  0  0  0  0  0  0  0  0  0  0  0
   -1.9957    1.9005   -0.0746 N   0  0  0  0  0  0  0  0  0  0  0  0
  1 42  1  0  0  0  0
  2  3  1  0  0  0  0
  4  2  2  0  0  0  0
  5  4  1  0  0  0  0
  5  6  1  0  0  0  0
  7  5  2  0  0  0  0
  8  7  1  0  0  0  0
  9 11  2  0  0  0  0
  9  7  1  0  0  0  0
 10  9  1  0  0  0  0
 11 43  1  0  0  0  0
 12 13  1  0  0  0  0
 13 14  2  0  0  0  0
 13 21  1  0  0  0  0
 14 15  1  0  0  0  0
 16 17  1  0  0  0  0
 16 14  1  0  0  0  0
 18 16  2  0  0  0  0
 19 18  1  0  0  0  0
 20 18  1  0  0  0  0
 20 12  2  0  0  0  0
 21 23  1  0  0  0  0
 21 27  1  0  0  0  0
 22 21  1  0  0  0  0
 23 24  1  0  0  0  0
 23 25  1  0  0  0  0
 26 23  1  0  0  0  0
 27 30  1  0  0  0  0
 27 29  1  0  0  0  0
 28 27  1  0  0  0  0
 31 32  1  0  0  0  0
 31 20  1  0  0  0  0
 33 36  1  0  0  0  0
 33 31  1  0  0  0  0
 34 33  1  0  0  0  0
 35 33  1  0  0  0  0
 37 38  1  0  0  0  0
 37 31  1  0  0  0  0
 39 37  1  0  0  0  0
 40 37  1  0  0  0  0
 41 11  1  0  0  0  0
 42  2  1  0  0  0  0
 42 12  1  0  0  0  0
 43  1  1  0  0  0  0
 43  4  1  0  0  0  0
M  END
