7
 OpenBabel05122313113D

 38 38  0  0  0  0  0  0  0  0999 V2000
    0.6803    1.3978   -2.4157 N   0  0  0  0  0  0  0  0  0  0  0  0
   -2.9412    1.8096    0.9598 O   0  0  0  0  0  0  0  0  0  0  0  0
   -1.7109    0.7561    2.5639 O   0  0  0  0  0  0  0  0  0  0  0  0
   -0.2687    3.2279    1.5334 O   0  0  0  0  0  0  0  0  0  0  0  0
    1.2411    3.4511   -0.1531 O   0  0  0  0  0  0  0  0  0  0  0  0
    4.5522   -1.1475   -0.0652 O   0  0  0  0  0  0  0  0  0  0  0  0
   -0.9896    0.6043    0.3162 C   0  0  0  0  0  3  0  0  0  0  0  0
    0.0336    1.4368   -0.0700 C   0  0  0  0  0  0  0  0  0  0  0  0
    0.9739    1.0597   -1.1580 C   0  0  0  0  0  0  0  0  0  0  0  0
    2.1836    0.3496   -0.8498 C   0  0  0  0  0  0  0  0  0  0  0  0
    2.8961    0.0928   -1.6443 H   0  0  0  0  0  0  0  0  0  0  0  0
    2.4364   -0.0811    0.4314 C   0  0  0  0  0  3  0  0  0  0  0  0
    1.7008    0.1397    1.2200 H   0  0  0  0  0  0  0  0  0  0  0  0
    3.5571   -0.8502    0.8425 C   0  0  0  0  0  0  0  0  0  0  0  0
    3.8605   -1.4500    2.0651 C   0  0  0  0  0  0  0  0  0  0  0  0
    3.2313   -1.4073    2.9607 H   0  0  0  0  0  0  0  0  0  0  0  0
    5.0911   -2.1384    1.8882 C   0  0  0  0  0  0  0  0  0  0  0  0
    5.6395   -2.7308    2.6282 H   0  0  0  0  0  0  0  0  0  0  0  0
    5.4629   -1.9165    0.5743 C   0  0  0  0  0  0  0  0  0  0  0  0
    6.3247   -2.2352   -0.0220 H   0  0  0  0  0  0  0  0  0  0  0  0
    1.5603    1.0498   -3.5330 C   0  0  0  0  0  0  0  0  0  0  0  0
    2.5592    1.5129   -3.4056 H   0  0  0  0  0  0  0  0  0  0  0  0
    1.1135    1.4262   -4.4690 H   0  0  0  0  0  0  0  0  0  0  0  0
    1.6632   -0.0509   -3.6033 H   0  0  0  0  0  0  0  0  0  0  0  0
   -0.5332    2.1347   -2.7601 C   0  0  0  0  0  0  0  0  0  0  0  0
   -1.1595    2.2739   -1.8636 H   0  0  0  0  0  0  0  0  0  0  0  0
   -1.1134    1.5623   -3.5104 H   0  0  0  0  0  0  0  0  0  0  0  0
   -0.2573    3.1210   -3.1869 H   0  0  0  0  0  0  0  0  0  0  0  0
   -1.9655    1.1568    1.2948 C   0  0  0  0  0  0  0  0  0  0  0  0
   -2.6576    1.2102    3.5368 C   0  0  0  0  0  0  0  0  0  0  0  0
   -2.6774    2.3182    3.5711 H   0  0  0  0  0  0  0  0  0  0  0  0
   -2.3209    0.8001    4.5059 H   0  0  0  0  0  0  0  0  0  0  0  0
   -3.6754    0.8416    3.2967 H   0  0  0  0  0  0  0  0  0  0  0  0
    0.2784    2.7629    0.5486 C   0  0  0  0  0  0  0  0  0  0  0  0
    1.5685    4.7407    0.3709 C   0  0  0  0  0  0  0  0  0  0  0  0
    0.6811    5.4059    0.3721 H   0  0  0  0  0  0  0  0  0  0  0  0
    2.3558    5.1509   -0.2871 H   0  0  0  0  0  0  0  0  0  0  0  0
    1.9392    4.6635    1.4132 H   0  0  0  0  0  0  0  0  0  0  0  0
  1  9  1  0  0  0  0
  2 29  2  0  0  0  0
  3 30  1  0  0  0  0
  5 35  1  0  0  0  0
  5 34  1  0  0  0  0
  6 19  1  0  0  0  0
  6 14  1  0  0  0  0
  7 29  1  0  0  0  0
  8  7  2  0  0  0  0
  8 34  1  0  0  0  0
  9 10  2  0  0  0  0
  9  8  1  0  0  0  0
 10 12  1  0  0  0  0
 11 10  1  0  0  0  0
 12 14  1  0  0  0  0
 12 13  1  0  0  0  0
 14 15  2  0  0  0  0
 15 16  1  0  0  0  0
 17 15  1  0  0  0  0
 17 18  1  0  0  0  0
 19 17  2  0  0  0  0
 20 19  1  0  0  0  0
 21 22  1  0  0  0  0
 21  1  1  0  0  0  0
 23 21  1  0  0  0  0
 24 21  1  0  0  0  0
 25  1  1  0  0  0  0
 25 26  1  0  0  0  0
 27 25  1  0  0  0  0
 28 25  1  0  0  0  0
 29  3  1  0  0  0  0
 30 31  1  0  0  0  0
 30 32  1  0  0  0  0
 33 30  1  0  0  0  0
 34  4  2  0  0  0  0
 35 36  1  0  0  0  0
 35 38  1  0  0  0  0
 37 35  1  0  0  0  0
M  END
