6
 OpenBabel05122313113D

 34 33  0  0  0  0  0  0  0  0999 V2000
    3.4912    2.1913   -0.1708 Si  0  0  0  0  0  0  0  0  0  0  0  0
    2.8968   -2.5351    0.1758 Si  0  0  0  0  0  0  0  0  0  0  0  0
    2.3583   -0.9412   -0.1169 O   0  0  0  0  0  0  0  0  0  0  0  0
    1.6900    2.2384   -0.1711 N   0  0  0  0  0  0  0  0  0  0  0  0
    0.9482    1.0891   -0.0810 C   0  0  0  0  0  3  0  0  0  0  0  0
    1.1760   -0.2580   -0.0606 C   0  0  0  0  0  3  0  0  0  0  0  0
    1.0044    3.5246   -0.2634 C   0  0  0  0  0  0  0  0  0  0  0  0
    4.1047    1.2585   -1.6907 C   0  0  0  0  0  0  0  0  0  0  0  0
    4.0706    1.4051    1.4422 C   0  0  0  0  0  0  0  0  0  0  0  0
    4.1002    3.9818   -0.2480 C   0  0  0  0  0  0  0  0  0  0  0  0
    1.4785   -3.7568    0.4614 C   0  0  0  0  0  0  0  0  0  0  0  0
    4.0183   -2.4578    1.6904 C   0  0  0  0  0  0  0  0  0  0  0  0
    3.9343   -2.9892   -1.3297 C   0  0  0  0  0  0  0  0  0  0  0  0
   -0.0875    3.3357   -0.2697 H   0  0  0  0  0  0  0  0  0  0  0  0
    1.2681    4.0731   -1.1938 H   0  0  0  0  0  0  0  0  0  0  0  0
    1.2435    4.1989    0.5889 H   0  0  0  0  0  0  0  0  0  0  0  0
    5.2129    1.1966   -1.7022 H   0  0  0  0  0  0  0  0  0  0  0  0
    3.7796    1.7713   -2.6194 H   0  0  0  0  0  0  0  0  0  0  0  0
    3.6923    0.2312   -1.6875 H   0  0  0  0  0  0  0  0  0  0  0  0
    3.7573    2.0243    2.3077 H   0  0  0  0  0  0  0  0  0  0  0  0
    5.1751    1.3020    1.4726 H   0  0  0  0  0  0  0  0  0  0  0  0
    3.6233    0.3988    1.5474 H   0  0  0  0  0  0  0  0  0  0  0  0
    3.7532    4.5799    0.6188 H   0  0  0  0  0  0  0  0  0  0  0  0
    3.7739    4.4964   -1.1745 H   0  0  0  0  0  0  0  0  0  0  0  0
    5.2101    3.9897   -0.2360 H   0  0  0  0  0  0  0  0  0  0  0  0
    1.4202   -4.5206   -0.3396 H   0  0  0  0  0  0  0  0  0  0  0  0
    0.5215   -3.1940    0.4799 H   0  0  0  0  0  0  0  0  0  0  0  0
    1.5934   -4.2918    1.4255 H   0  0  0  0  0  0  0  0  0  0  0  0
    3.4693   -2.1172    2.5908 H   0  0  0  0  0  0  0  0  0  0  0  0
    4.8644   -1.7616    1.5227 H   0  0  0  0  0  0  0  0  0  0  0  0
    4.4387   -3.4625    1.9061 H   0  0  0  0  0  0  0  0  0  0  0  0
    4.4016   -3.9870   -1.1967 H   0  0  0  0  0  0  0  0  0  0  0  0
    4.7463   -2.2480   -1.4761 H   0  0  0  0  0  0  0  0  0  0  0  0
    3.3258   -3.0143   -2.2556 H   0  0  0  0  0  0  0  0  0  0  0  0
  1  9  1  0  0  0  0
  2 11  1  0  0  0  0
  2 12  1  0  0  0  0
  3  6  1  0  0  0  0
  3  2  1  0  0  0  0
  4  1  1  0  0  0  0
  4  5  1  0  0  0  0
  5  6  2  0  0  0  0
  7  4  1  0  0  0  0
  7 16  1  0  0  0  0
  8 19  1  0  0  0  0
  8  1  1  0  0  0  0
  9 21  1  0  0  0  0
  9 22  1  0  0  0  0
  9 20  1  0  0  0  0
 10 25  1  0  0  0  0
 10  1  1  0  0  0  0
 10 23  1  0  0  0  0
 11 27  1  0  0  0  0
 11 28  1  0  0  0  0
 12 31  1  0  0  0  0
 12 29  1  0  0  0  0
 13 32  1  0  0  0  0
 13  2  1  0  0  0  0
 14  7  1  0  0  0  0
 15  7  1  0  0  0  0
 17  8  1  0  0  0  0
 18  8  1  0  0  0  0
 24 10  1  0  0  0  0
 26 11  1  0  0  0  0
 30 12  1  0  0  0  0
 33 13  1  0  0  0  0
 34 13  1  0  0  0  0
M  END
