6
 OpenBabel05122313113D

 42 44  0  0  1  0  0  0  0  0999 V2000
   -5.5867   -0.0619    0.2329 Si  0  0  0  0  0  0  0  0  0  0  0  0
   -4.2546   -0.7916   -0.5310 O   0  0  0  0  0  0  0  0  0  0  0  0
   -2.8512   -0.7099   -0.2788 C   0  0  2  0  0  0  0  0  0  0  0  0
   -2.1297   -1.5451   -1.3532 C   0  0  1  0  0  0  0  0  0  0  0  0
   -0.6242   -1.3879   -1.1502 C   0  0  0  0  0  3  0  0  0  0  0  0
   -0.1204   -1.7789    0.1269 C   0  0  0  0  0  3  0  0  0  0  0  0
   -0.9611   -1.4468    1.2248 C   0  0  0  0  0  3  0  0  0  0  0  0
   -2.4652   -1.5274    0.9783 C   0  0  2  0  0  0  0  0  0  0  0  0
   -2.6073   -2.9833   -1.0112 C   0  0  0  0  0  0  0  0  0  0  0  0
   -2.8529   -2.9653    0.5321 C   0  0  0  0  0  0  0  0  0  0  0  0
   -2.3907    0.7339   -0.2773 C   0  0  0  0  0  0  0  0  0  0  0  0
   -2.1465    1.4411    0.9350 C   0  0  0  0  0  0  0  0  0  0  0  0
   -2.1002    2.8689    0.9338 C   0  0  0  0  0  0  0  0  0  0  0  0
   -2.2777    3.5764   -0.2449 C   0  0  0  0  0  0  0  0  0  0  0  0
   -2.5295    2.8838   -1.4606 C   0  0  0  0  0  0  0  0  0  0  0  0
   -2.5875    1.5010   -1.4731 C   0  0  0  0  0  0  0  0  0  0  0  0
   -5.7534    1.7588   -0.2255 C   0  0  0  0  0  0  0  0  0  0  0  0
   -5.5225   -0.2211    2.1171 C   0  0  0  0  0  0  0  0  0  0  0  0
   -7.0416   -1.0418   -0.4496 C   0  0  0  0  0  0  0  0  0  0  0  0
   -2.4328   -1.2339   -2.3715 H   0  0  0  0  0  0  0  0  0  0  0  0
    0.0080   -1.5670   -2.0334 H   0  0  0  0  0  0  0  0  0  0  0  0
    0.8388   -2.3029    0.2632 H   0  0  0  0  0  0  0  0  0  0  0  0
   -0.6401   -1.7278    2.2411 H   0  0  0  0  0  0  0  0  0  0  0  0
   -3.0279   -1.2022    1.8731 H   0  0  0  0  0  0  0  0  0  0  0  0
   -1.8567   -3.7381   -1.3173 H   0  0  0  0  0  0  0  0  0  0  0  0
   -3.5499   -3.2067   -1.5471 H   0  0  0  0  0  0  0  0  0  0  0  0
   -3.9200   -3.1614    0.7572 H   0  0  0  0  0  0  0  0  0  0  0  0
   -2.2545   -3.7242    1.0734 H   0  0  0  0  0  0  0  0  0  0  0  0
   -2.2413    0.9204    1.8968 H   0  0  0  0  0  0  0  0  0  0  0  0
   -1.9293    3.3962    1.8842 H   0  0  0  0  0  0  0  0  0  0  0  0
   -2.2409    4.6763   -0.2393 H   0  0  0  0  0  0  0  0  0  0  0  0
   -2.6827    3.4499   -2.3912 H   0  0  0  0  0  0  0  0  0  0  0  0
   -2.8161    0.9669   -2.4063 H   0  0  0  0  0  0  0  0  0  0  0  0
   -6.7112    2.1566    0.1715 H   0  0  0  0  0  0  0  0  0  0  0  0
   -5.7541    1.8956   -1.3253 H   0  0  0  0  0  0  0  0  0  0  0  0
   -4.9292    2.3714    0.1914 H   0  0  0  0  0  0  0  0  0  0  0  0
   -6.4708    0.1597    2.5516 H   0  0  0  0  0  0  0  0  0  0  0  0
   -4.6959    0.3744    2.5548 H   0  0  0  0  0  0  0  0  0  0  0  0
   -5.4028   -1.2756    2.4380 H   0  0  0  0  0  0  0  0  0  0  0  0
   -8.0047   -0.6478   -0.0651 H   0  0  0  0  0  0  0  0  0  0  0  0
   -6.9674   -2.1112   -0.1655 H   0  0  0  0  0  0  0  0  0  0  0  0
   -7.0646   -0.9856   -1.5568 H   0  0  0  0  0  0  0  0  0  0  0  0
  1 18  1  0  0  0  0
  2  1  1  0  0  0  0
  3  2  1  6  0  0  0
  3 11  1  0  0  0  0
  3  8  1  0  0  0  0
  4 20  1  6  0  0  0
  4  5  1  0  0  0  0
  4  9  1  0  0  0  0
  4  3  1  0  0  0  0
  5  6  1  0  0  0  0
  6 22  1  0  0  0  0
  6  7  1  0  0  0  0
  7 23  1  0  0  0  0
  8  7  1  0  0  0  0
  8 24  1  1  0  0  0
  9 10  1  0  0  0  0
 10 27  1  0  0  0  0
 10  8  1  0  0  0  0
 10 28  1  0  0  0  0
 11 12  1  0  0  0  0
 12 29  1  0  0  0  0
 13 12  2  0  0  0  0
 13 30  1  0  0  0  0
 14 31  1  0  0  0  0
 14 13  1  0  0  0  0
 15 14  2  0  0  0  0
 16 15  1  0  0  0  0
 16 11  2  0  0  0  0
 17 34  1  0  0  0  0
 17 36  1  0  0  0  0
 17  1  1  0  0  0  0
 18 39  1  0  0  0  0
 18 37  1  0  0  0  0
 18 38  1  0  0  0  0
 19 41  1  0  0  0  0
 19 40  1  0  0  0  0
 19  1  1  0  0  0  0
 21  5  1  0  0  0  0
 25  9  1  0  0  0  0
 26  9  1  0  0  0  0
 32 15  1  0  0  0  0
 33 16  1  0  0  0  0
 35 17  1  0  0  0  0
 42 19  1  0  0  0  0
M  END
