2
 OpenBabel05122313113D

 33 33  0  0  0  0  0  0  0  0999 V2000
   -5.2952    0.1001   -0.9628 Cl  0  0  0  0  0  0  0  0  0  0  0  0
   -1.4751    0.0667   -0.0838 C   0  0  0  0  0  2  0  0  0  0  0  0
   -2.6226   -0.4418   -0.6464 N   0  0  0  0  0  0  0  0  0  0  0  0
   -1.8744    1.2242    0.5391 N   0  0  0  0  0  0  0  0  0  0  0  0
   -3.7099    0.3888   -0.3897 C   0  0  0  0  0  0  0  0  0  0  0  0
   -4.0740    2.8007    0.9719 Cl  0  0  0  0  0  0  0  0  0  0  0  0
   -3.2351    1.4452    0.3544 C   0  0  0  0  0  0  0  0  0  0  0  0
   -2.6823   -1.6967   -1.3967 C   0  0  0  0  0  0  0  0  0  0  0  0
   -1.6260   -1.9310   -1.6387 H   0  0  0  0  0  0  0  0  0  0  0  0
   -3.2280   -1.5007   -2.3421 H   0  0  0  0  0  0  0  0  0  0  0  0
   -3.3342   -2.8486   -0.6262 C   0  0  0  0  0  0  0  0  0  0  0  0
   -4.3907   -2.5897   -0.3958 H   0  0  0  0  0  0  0  0  0  0  0  0
   -3.3809   -3.7164   -1.3201 H   0  0  0  0  0  0  0  0  0  0  0  0
   -2.5993   -3.2477    0.6549 C   0  0  0  0  0  0  0  0  0  0  0  0
   -2.5373   -2.3673    1.3301 H   0  0  0  0  0  0  0  0  0  0  0  0
   -1.5454   -3.4986    0.4052 H   0  0  0  0  0  0  0  0  0  0  0  0
   -3.2634   -4.4139    1.3860 C   0  0  0  0  0  0  0  0  0  0  0  0
   -4.3069   -4.1685    1.6754 H   0  0  0  0  0  0  0  0  0  0  0  0
   -2.7139   -4.6791    2.3112 H   0  0  0  0  0  0  0  0  0  0  0  0
   -3.3036   -5.3225    0.7493 H   0  0  0  0  0  0  0  0  0  0  0  0
   -0.9527    2.1503    1.1914 C   0  0  0  0  0  0  0  0  0  0  0  0
   -0.1115    1.5286    1.5557 H   0  0  0  0  0  0  0  0  0  0  0  0
   -1.4724    2.5926    2.0654 H   0  0  0  0  0  0  0  0  0  0  0  0
   -0.4440    3.2364    0.2425 C   0  0  0  0  0  0  0  0  0  0  0  0
   -1.3059    3.8222   -0.1451 H   0  0  0  0  0  0  0  0  0  0  0  0
    0.0241    2.7363   -0.6325 H   0  0  0  0  0  0  0  0  0  0  0  0
    0.5646    4.1724    0.9130 C   0  0  0  0  0  0  0  0  0  0  0  0
    1.4023    3.5683    1.3268 H   0  0  0  0  0  0  0  0  0  0  0  0
    0.0863    4.6627    1.7900 H   0  0  0  0  0  0  0  0  0  0  0  0
    1.1191    5.2322   -0.0389 C   0  0  0  0  0  0  0  0  0  0  0  0
    1.6523    4.7610   -0.8901 H   0  0  0  0  0  0  0  0  0  0  0  0
    1.8353    5.9051    0.4734 H   0  0  0  0  0  0  0  0  0  0  0  0
    0.3074    5.8620   -0.4591 H   0  0  0  0  0  0  0  0  0  0  0  0
  1  5  1  0  0  0  0
  2  4  1  0  0  0  0
  3  5  1  0  0  0  0
  3  2  1  0  0  0  0
  4 21  1  0  0  0  0
  5  7  2  0  0  0  0
  7  4  1  0  0  0  0
  7  6  1  0  0  0  0
  8  3  1  0  0  0  0
  8 11  1  0  0  0  0
  9  8  1  0  0  0  0
 10  8  1  0  0  0  0
 11 12  1  0  0  0  0
 11 14  1  0  0  0  0
 13 11  1  0  0  0  0
 14 15  1  0  0  0  0
 14 17  1  0  0  0  0
 16 14  1  0  0  0  0
 17 18  1  0  0  0  0
 17 19  1  0  0  0  0
 20 17  1  0  0  0  0
 21 22  1  0  0  0  0
 21 23  1  0  0  0  0
 24 27  1  0  0  0  0
 24 21  1  0  0  0  0
 25 24  1  0  0  0  0
 26 24  1  0  0  0  0
 27 28  1  0  0  0  0
 27 29  1  0  0  0  0
 30 32  1  0  0  0  0
 30 27  1  0  0  0  0
 31 30  1  0  0  0  0
 33 30  1  0  0  0  0
M  END
