2
 OpenBabel05122313113D

 50 53  0  0  0  0  0  0  0  0999 V2000
    1.5701    0.6770    0.3690 N   0  0  0  0  0  0  0  0  0  0  0  0
   -1.1174   -0.3987    0.9104 C   0  0  0  0  0  3  0  0  0  0  0  0
   -2.4389   -0.8244    1.1563 C   0  0  0  0  0  0  0  0  0  0  0  0
   -3.2645    0.0459    1.9046 C   0  0  0  0  0  0  0  0  0  0  0  0
   -4.2628   -0.2968    2.2210 H   0  0  0  0  0  0  0  0  0  0  0  0
   -2.9093    1.3854    2.0887 C   0  0  0  0  0  0  0  0  0  0  0  0
   -3.6443    2.0823    2.5215 H   0  0  0  0  0  0  0  0  0  0  0  0
   -3.0553   -2.0195    0.4609 C   0  0  0  0  0  0  0  0  0  0  0  0
   -3.8713   -2.4356    1.0847 H   0  0  0  0  0  0  0  0  0  0  0  0
   -2.3010   -2.8243    0.3455 H   0  0  0  0  0  0  0  0  0  0  0  0
   -3.6524   -1.6744   -0.9876 C   0  0  0  0  0  0  0  0  0  0  0  0
   -3.1644   -2.3365   -1.7304 H   0  0  0  0  0  0  0  0  0  0  0  0
   -4.7312   -1.9287   -0.9878 H   0  0  0  0  0  0  0  0  0  0  0  0
   -3.4550   -0.2258   -1.3691 C   0  0  0  0  0  0  0  0  0  0  0  0
   -4.3436    0.7692   -0.9113 C   0  0  0  0  0  0  0  0  0  0  0  0
   -5.3404    0.4757   -0.5442 H   0  0  0  0  0  0  0  0  0  0  0  0
   -3.9185    2.0949   -0.7511 C   0  0  0  0  0  0  0  0  0  0  0  0
   -4.5890    2.8194   -0.2610 H   0  0  0  0  0  0  0  0  0  0  0  0
   -2.5871    2.4614   -1.0366 C   0  0  0  0  0  0  0  0  0  0  0  0
   -1.8121    1.5350   -1.7645 C   0  0  0  0  0  0  0  0  0  0  0  0
   -0.7977    1.8150   -2.0896 H   0  0  0  0  0  0  0  0  0  0  0  0
   -2.2403    0.2118   -1.9342 C   0  0  0  0  0  0  0  0  0  0  0  0
   -1.5576   -0.5213   -2.3940 H   0  0  0  0  0  0  0  0  0  0  0  0
   -1.9287    3.6366   -0.3459 C   0  0  0  0  0  0  0  0  0  0  0  0
   -2.5499    4.5529   -0.4194 H   0  0  0  0  0  0  0  0  0  0  0  0
   -0.9671    3.8595   -0.8496 H   0  0  0  0  0  0  0  0  0  0  0  0
   -1.6430    3.3681    1.2025 C   0  0  0  0  0  0  0  0  0  0  0  0
   -0.6674    3.8319    1.4550 H   0  0  0  0  0  0  0  0  0  0  0  0
   -2.4039    3.9044    1.8034 H   0  0  0  0  0  0  0  0  0  0  0  0
   -1.7102    1.8978    1.5618 C   0  0  0  0  0  0  0  0  0  0  0  0
   -0.7306    0.9511    1.1305 C   0  0  0  0  0  0  0  0  0  0  0  0
    0.6307    1.4245    0.8465 C   0  0  0  0  0  0  0  0  0  0  0  0
    0.8464    2.4772    1.1275 H   0  0  0  0  0  0  0  0  0  0  0  0
    2.8714    1.1572    0.1397 C   0  0  0  0  0  0  0  0  0  0  0  0
    3.9461    0.3932    0.6812 C   0  0  0  0  0  0  0  0  0  0  0  0
    5.2618    0.8287    0.4580 C   0  0  0  0  0  0  0  0  0  0  0  0
    6.0918    0.2509    0.8939 H   0  0  0  0  0  0  0  0  0  0  0  0
    5.5287    1.9678   -0.3148 C   0  0  0  0  0  0  0  0  0  0  0  0
    6.5669    2.2861   -0.4922 H   0  0  0  0  0  0  0  0  0  0  0  0
    4.4672    2.6864   -0.8756 C   0  0  0  0  0  0  0  0  0  0  0  0
    4.6721    3.5648   -1.5078 H   0  0  0  0  0  0  0  0  0  0  0  0
    3.1274    2.3097   -0.6587 C   0  0  0  0  0  0  0  0  0  0  0  0
    3.6687   -0.8548    1.4770 C   0  0  0  0  0  0  0  0  0  0  0  0
    4.5934   -1.2351    1.9515 H   0  0  0  0  0  0  0  0  0  0  0  0
    3.2716   -1.6591    0.8198 H   0  0  0  0  0  0  0  0  0  0  0  0
    2.9154   -0.6843    2.2724 H   0  0  0  0  0  0  0  0  0  0  0  0
    2.0235    3.0976   -1.3236 C   0  0  0  0  0  0  0  0  0  0  0  0
    2.4065    3.6162   -2.2237 H   0  0  0  0  0  0  0  0  0  0  0  0
    1.5957    3.8789   -0.6599 H   0  0  0  0  0  0  0  0  0  0  0  0
    1.1836    2.4458   -1.6347 H   0  0  0  0  0  0  0  0  0  0  0  0
  1 32  2  0  0  0  0
  2 31  2  0  0  0  0
  2  3  1  0  0  0  0
  3  4  2  0  0  0  0
  4  6  1  0  0  0  0
  4  5  1  0  0  0  0
  6  7  1  0  0  0  0
  8  9  1  0  0  0  0
  8  3  1  0  0  0  0
 10  8  1  0  0  0  0
 11  8  1  0  0  0  0
 12 11  1  0  0  0  0
 13 11  1  0  0  0  0
 14 11  1  0  0  0  0
 14 15  1  0  0  0  0
 15 17  2  0  0  0  0
 15 16  1  0  0  0  0
 17 18  1  0  0  0  0
 19 17  1  0  0  0  0
 19 24  1  0  0  0  0
 20 19  2  0  0  0  0
 21 20  1  0  0  0  0
 22 20  1  0  0  0  0
 22 14  2  0  0  0  0
 23 22  1  0  0  0  0
 24 27  1  0  0  0  0
 25 24  1  0  0  0  0
 26 24  1  0  0  0  0
 27 28  1  0  0  0  0
 27 30  1  0  0  0  0
 27 29  1  0  0  0  0
 30  6  2  0  0  0  0
 31 30  1  0  0  0  0
 32 33  1  0  0  0  0
 32 31  1  0  0  0  0
 34  1  1  0  0  0  0
 34 35  1  0  0  0  0
 35 43  1  0  0  0  0
 36 35  2  0  0  0  0
 36 37  1  0  0  0  0
 38 36  1  0  0  0  0
 39 38  1  0  0  0  0
 40 42  1  0  0  0  0
 40 38  2  0  0  0  0
 41 40  1  0  0  0  0
 42 34  2  0  0  0  0
 43 44  1  0  0  0  0
 43 46  1  0  0  0  0
 45 43  1  0  0  0  0
 47 49  1  0  0  0  0
 47 42  1  0  0  0  0
 48 47  1  0  0  0  0
 50 47  1  0  0  0  0
M  END
