1
 OpenBabel05122313113D

  7  6  0  0  1  0  0  0  0  0999 V2000
    0.8133   -0.2375   -0.2113 C   0  0  0  0  0  1  0  0  0  0  0  0
    3.3757   -0.5652   -0.4668 C   0  0  2  0  0  0  0  0  0  0  0  0
    3.6364   -0.8252   -1.5207 H   0  0  0  0  0  0  0  0  0  0  0  0
    4.0808    0.6878   -0.0982 C   0  0  0  0  0  0  0  0  0  0  0  0
    1.9891   -0.4032   -0.3540 N   0  0  0  0  0  2  0  0  0  0  0  0
    4.6598    1.6669    0.1734 N   0  0  0  0  0  0  0  0  0  0  0  0
    3.8170   -1.5917    0.3414 F   0  0  0  0  0  0  0  0  0  0  0  0
  2  3  1  6  0  0  0
  2  5  1  0  0  0  0
  2  4  1  0  0  0  0
  2  7  1  0  0  0  0
  4  6  3  0  0  0  0
  5  1  1  0  0  0  0
M  END
