1
 OpenBabel05122313113D

 33 34  0  0  0  0  0  0  0  0999 V2000
   -0.0268    1.2100   -0.1705 C   0  0  0  0  0  2  0  0  0  0  0  0
    1.3129    1.2087    0.0779 N   0  0  0  0  0  0  0  0  0  0  0  0
   -0.3844    2.5233   -0.1772 O   0  0  0  0  0  0  0  0  0  0  0  0
    0.7083    3.3334    0.0767 C   0  0  0  0  0  0  0  0  0  0  0  0
    1.7938    2.5263    0.2541 C   0  0  0  0  0  0  0  0  0  0  0  0
    0.4885    4.7992    0.1034 C   0  0  0  0  0  0  0  0  0  0  0  0
    1.4309    5.3259    0.3423 H   0  0  0  0  0  0  0  0  0  0  0  0
   -0.2702    5.0783    0.8639 H   0  0  0  0  0  0  0  0  0  0  0  0
    0.1244    5.1682   -0.8781 H   0  0  0  0  0  0  0  0  0  0  0  0
    3.2084    2.8243    0.6057 C   0  0  0  0  0  0  0  0  0  0  0  0
    3.3496    3.9126    0.7422 H   0  0  0  0  0  0  0  0  0  0  0  0
    3.9103    2.4757   -0.1787 H   0  0  0  0  0  0  0  0  0  0  0  0
    3.5002    2.3117    1.5453 H   0  0  0  0  0  0  0  0  0  0  0  0
    2.1828    0.0633    0.1578 C   0  0  0  0  0  0  0  0  0  0  0  0
    3.0228   -0.2234   -0.9419 C   0  0  0  0  0  0  0  0  0  0  0  0
    3.9151   -1.2994   -0.8128 C   0  0  0  0  0  0  0  0  0  0  0  0
    4.5700   -1.5442   -1.6644 H   0  0  0  0  0  0  0  0  0  0  0  0
    3.9781   -2.0838    0.3545 C   0  0  0  0  0  0  0  0  0  0  0  0
    3.1191   -1.7639    1.4199 C   0  0  0  0  0  0  0  0  0  0  0  0
    3.1515   -2.3670    2.3414 H   0  0  0  0  0  0  0  0  0  0  0  0
    2.2126   -0.6908    1.3479 C   0  0  0  0  0  0  0  0  0  0  0  0
    1.2721   -0.3884    2.4824 C   0  0  0  0  0  0  0  0  0  0  0  0
    1.2533    0.6914    2.7363 H   0  0  0  0  0  0  0  0  0  0  0  0
    1.5438   -0.9568    3.3916 H   0  0  0  0  0  0  0  0  0  0  0  0
    0.2357   -0.6619    2.1901 H   0  0  0  0  0  0  0  0  0  0  0  0
    2.8966    0.5308   -2.2369 C   0  0  0  0  0  0  0  0  0  0  0  0
    1.9306    0.2428   -2.7074 H   0  0  0  0  0  0  0  0  0  0  0  0
    3.7197    0.2756   -2.9304 H   0  0  0  0  0  0  0  0  0  0  0  0
    2.8819    1.6311   -2.1013 H   0  0  0  0  0  0  0  0  0  0  0  0
    4.9199   -3.2583    0.4393 C   0  0  0  0  0  0  0  0  0  0  0  0
    5.0744   -3.5863    1.4856 H   0  0  0  0  0  0  0  0  0  0  0  0
    5.9097   -3.0206    0.0001 H   0  0  0  0  0  0  0  0  0  0  0  0
    4.5171   -4.1267   -0.1248 H   0  0  0  0  0  0  0  0  0  0  0  0
  1  2  1  0  0  0  0
  2 14  1  0  0  0  0
  2  5  1  0  0  0  0
  3  1  1  0  0  0  0
  3  4  1  0  0  0  0
  4  6  1  0  0  0  0
  4  5  2  0  0  0  0
  5 10  1  0  0  0  0
  6  7  1  0  0  0  0
  6  8  1  0  0  0  0
  9  6  1  0  0  0  0
 10 11  1  0  0  0  0
 10 13  1  0  0  0  0
 12 10  1  0  0  0  0
 14 21  1  0  0  0  0
 15 16  1  0  0  0  0
 15 14  2  0  0  0  0
 16 18  2  0  0  0  0
 17 16  1  0  0  0  0
 18 30  1  0  0  0  0
 18 19  1  0  0  0  0
 19 20  1  0  0  0  0
 21 19  2  0  0  0  0
 21 22  1  0  0  0  0
 22 23  1  0  0  0  0
 22 24  1  0  0  0  0
 25 22  1  0  0  0  0
 26 29  1  0  0  0  0
 26 15  1  0  0  0  0
 27 26  1  0  0  0  0
 28 26  1  0  0  0  0
 30 31  1  0  0  0  0
 32 30  1  0  0  0  0
 33 30  1  0  0  0  0
M  END
