2
 OpenBabel05122313113D

 32 33  0  0  1  0  0  0  0  0999 V2000
    1.7453    0.3807   -1.5192 C   0  0  1  0  0  3  0  0  0  0  0  0
    3.0456    0.9435   -1.7975 C   0  0  0  0  0  3  0  0  0  0  0  0
    3.3065    2.0074   -1.8131 H   0  0  0  0  0  0  0  0  0  0  0  0
    3.9416   -0.1375   -2.1022 C   0  0  0  0  0  3  0  0  0  0  0  0
    4.9983   -0.0351   -2.3758 H   0  0  0  0  0  0  0  0  0  0  0  0
    3.2078   -1.3642   -2.0324 C   0  0  0  0  0  0  0  0  0  0  0  0
    3.6066   -2.3681   -2.2200 H   0  0  0  0  0  0  0  0  0  0  0  0
    1.8697   -1.0516   -1.6655 C   0  0  0  0  0  0  0  0  0  0  0  0
    1.0486   -1.7599   -1.5170 H   0  0  0  0  0  0  0  0  0  0  0  0
    0.5257    1.0892   -1.1165 C   0  0  0  0  0  0  0  0  0  0  0  0
   -2.8329    0.2956   -0.3662 C   0  0  0  0  0  0  0  0  0  0  0  0
   -2.9155   -1.1061   -0.6151 C   0  0  0  0  0  0  0  0  0  0  0  0
   -2.0059   -1.6095   -0.9644 H   0  0  0  0  0  0  0  0  0  0  0  0
   -4.0988   -1.8002   -0.4224 C   0  0  0  0  0  0  0  0  0  0  0  0
   -4.1732   -2.8797   -0.6102 H   0  0  0  0  0  0  0  0  0  0  0  0
   -5.2468   -1.1126    0.0271 C   0  0  0  0  0  0  0  0  0  0  0  0
   -5.2163    0.2535    0.2822 C   0  0  0  0  0  0  0  0  0  0  0  0
   -6.1131    0.7802    0.6308 H   0  0  0  0  0  0  0  0  0  0  0  0
   -4.0223    0.9620    0.0896 C   0  0  0  0  0  0  0  0  0  0  0  0
    0.5556    2.5674   -0.8323 C   0  0  0  0  0  0  0  0  0  0  0  0
    0.3494    2.7613    0.2429 H   0  0  0  0  0  0  0  0  0  0  0  0
   -0.2206    3.1060   -1.4165 H   0  0  0  0  0  0  0  0  0  0  0  0
    1.5333    3.0207   -1.0666 H   0  0  0  0  0  0  0  0  0  0  0  0
   -0.5472    0.3521   -0.9755 N   0  0  0  0  0  0  0  0  0  0  0  0
   -1.6634    0.9749   -0.5538 N   0  0  0  0  0  0  0  0  0  0  0  0
   -1.7247    1.9888   -0.3293 H   0  0  0  0  0  0  0  0  0  0  0  0
   -6.5052   -1.8532    0.2304 N   0  0  0  0  0  0  0  0  0  0  0  0
   -4.0570    2.3964    0.3743 N   0  0  0  0  0  0  0  0  0  0  0  0
   -6.4894   -3.0626   -0.0088 O   0  0  0  0  0  0  0  0  0  0  0  0
   -7.4831   -1.2166    0.6234 O   0  0  0  0  0  0  0  0  0  0  0  0
   -3.0047    3.0573    0.2147 O   0  0  0  0  0  0  0  0  0  0  0  0
   -5.1098    2.8956    0.7554 O   0  0  0  0  0  0  0  0  0  0  0  0
  1 10  1  1  0  0  0
  2  1  1  0  0  0  0
  3  2  1  0  0  0  0
  4  6  1  0  0  0  0
  4  2  1  0  0  0  0
  5  4  1  0  0  0  0
  6  8  2  0  0  0  0
  7  6  1  0  0  0  0
  8  1  1  0  0  0  0
  8  9  1  0  0  0  0
 10 24  2  0  0  0  0
 10 20  1  0  0  0  0
 11 19  1  0  0  0  0
 12 14  1  0  0  0  0
 12 11  2  0  0  0  0
 13 12  1  0  0  0  0
 14 16  2  0  0  0  0
 15 14  1  0  0  0  0
 16 27  1  0  0  0  0
 16 17  1  0  0  0  0
 17 18  1  0  0  0  0
 19 17  2  0  0  0  0
 19 28  1  0  0  0  0
 20 21  1  0  0  0  0
 22 20  1  0  0  0  0
 23 20  1  0  0  0  0
 24 25  1  0  0  0  0
 25 11  1  0  0  0  0
 25 26  1  0  0  0  0
 27 30  2  0  0  0  0
 28 32  2  0  0  0  0
 29 27  2  0  0  0  0
 31 28  2  0  0  0  0
M  END
