3
 OpenBabel05122313113D

 30 31  0  0  1  0  0  0  0  0999 V2000
    5.4451   -1.7928    0.0069 O   0  0  0  0  0  0  0  0  0  0  0  0
    0.3670    2.0843   -0.2553 N   0  0  0  0  0  0  0  0  0  0  0  0
    0.4088    0.7325   -0.0381 C   0  0  0  0  0  3  0  0  0  0  0  0
    1.7191    0.1302   -0.0400 C   0  0  0  0  0  0  0  0  0  0  0  0
    1.8659   -1.2630    0.2285 C   0  0  0  0  0  0  0  0  0  0  0  0
    0.9495   -1.8353    0.4443 H   0  0  0  0  0  0  0  0  0  0  0  0
    3.1095   -1.8649    0.2392 C   0  0  0  0  0  0  0  0  0  0  0  0
    3.2314   -2.9363    0.4531 H   0  0  0  0  0  0  0  0  0  0  0  0
    4.2828   -1.0981   -0.0237 C   0  0  0  0  0  0  0  0  0  0  0  0
    4.1802    0.2731   -0.2827 C   0  0  0  0  0  0  0  0  0  0  0  0
    5.0688    0.8887   -0.4760 H   0  0  0  0  0  0  0  0  0  0  0  0
    2.9069    0.8983   -0.2867 C   0  0  2  0  0  3  0  0  0  0  0  0
    2.7472    2.3014   -0.5171 C   0  0  0  0  0  0  0  0  0  0  0  0
    3.6190    2.9429   -0.7072 H   0  0  0  0  0  0  0  0  0  0  0  0
    1.4933    2.8496   -0.4826 C   0  0  0  0  0  0  0  0  0  0  0  0
    1.3211    3.9236   -0.6332 H   0  0  0  0  0  0  0  0  0  0  0  0
   -0.9455    2.7977   -0.1705 C   0  0  0  0  0  0  0  0  0  0  0  0
   -1.6725    1.9578   -0.0670 H   0  0  0  0  0  0  0  0  0  0  0  0
   -1.2517    3.5716   -1.4517 C   0  0  0  0  0  0  0  0  0  0  0  0
   -0.5929    4.4547   -1.5885 H   0  0  0  0  0  0  0  0  0  0  0  0
   -2.2931    3.9470   -1.4087 H   0  0  0  0  0  0  0  0  0  0  0  0
   -1.1574    2.9254   -2.3469 H   0  0  0  0  0  0  0  0  0  0  0  0
   -1.0102    3.6429    1.0998 C   0  0  0  0  0  0  0  0  0  0  0  0
   -0.8565    2.9937    1.9847 H   0  0  0  0  0  0  0  0  0  0  0  0
   -2.0116    4.1108    1.1803 H   0  0  0  0  0  0  0  0  0  0  0  0
   -0.2559    4.4577    1.0979 H   0  0  0  0  0  0  0  0  0  0  0  0
    6.6563   -1.0965   -0.2323 C   0  0  0  0  0  0  0  0  0  0  0  0
    6.6737   -0.6384   -1.2462 H   0  0  0  0  0  0  0  0  0  0  0  0
    7.4666   -1.8447   -0.1593 H   0  0  0  0  0  0  0  0  0  0  0  0
    6.8277   -0.2991    0.5243 H   0  0  0  0  0  0  0  0  0  0  0  0
  2 17  1  0  0  0  0
  2  3  1  0  0  0  0
  4  3  2  0  0  0  0
  4  5  1  0  0  0  0
  5  7  2  0  0  0  0
  5  6  1  0  0  0  0
  7  8  1  0  0  0  0
  9  1  1  0  0  0  0
  9  7  1  0  0  0  0
 10  9  2  0  0  0  0
 11 10  1  0  0  0  0
 12 13  1  1  0  0  0
 12 10  1  0  0  0  0
 12  4  1  0  0  0  0
 13 15  2  0  0  0  0
 14 13  1  0  0  0  0
 15  2  1  0  0  0  0
 16 15  1  0  0  0  0
 17 18  1  0  0  0  0
 17 23  1  0  0  0  0
 19 21  1  0  0  0  0
 19 17  1  0  0  0  0
 20 19  1  0  0  0  0
 22 19  1  0  0  0  0
 23 25  1  0  0  0  0
 23 24  1  0  0  0  0
 26 23  1  0  0  0  0
 27 29  1  0  0  0  0
 27  1  1  0  0  0  0
 27 30  1  0  0  0  0
 28 27  1  0  0  0  0
M  END
