1
 OpenBabel05122313113D

 47 49  0  0  1  0  0  0  0  0999 V2000
    0.3320    0.7874    0.1152 C   0  0  0  0  0  2  0  0  0  0  0  0
    0.3462    1.8938   -0.8853 C   0  0  0  0  0  0  0  0  0  0  0  0
    1.3312    2.9039   -0.8643 C   0  0  0  0  0  0  0  0  0  0  0  0
    1.3340    3.9108   -1.8379 C   0  0  0  0  0  0  0  0  0  0  0  0
    0.3695    3.9136   -2.8587 C   0  0  0  0  0  0  0  0  0  0  0  0
   -0.6062    2.9053   -2.8931 C   0  0  0  0  0  0  0  0  0  0  0  0
   -0.6275    1.9079   -1.9088 C   0  0  0  0  0  0  0  0  0  0  0  0
   -0.6909    0.8522    0.9800 N   0  0  0  0  0  0  0  0  0  0  0  0
   -1.5719    2.0046    1.0876 C   0  0  0  0  0  0  0  0  0  0  0  0
   -1.0590    3.2283    1.5472 C   0  0  0  0  0  0  0  0  0  0  0  0
   -1.9138    4.3339    1.6670 C   0  0  0  0  0  0  0  0  0  0  0  0
   -3.2719    4.2151    1.3344 C   0  0  0  0  0  0  0  0  0  0  0  0
   -3.7788    2.9829    0.8884 C   0  0  0  0  0  0  0  0  0  0  0  0
   -2.9338    1.8714    0.7699 C   0  0  0  0  0  0  0  0  0  0  0  0
   -1.0230   -0.1938    1.9259 C   0  0  1  0  0  3  0  0  0  0  0  0
   -0.5997    0.0782    3.3350 C   0  0  0  0  0  0  0  0  0  0  0  0
   -1.7320   -1.2770    1.4797 C   0  0  0  0  0  0  0  0  0  0  0  0
   -2.2214   -2.3564    2.4152 C   0  0  0  0  0  0  0  0  0  0  0  0
   -1.9019   -1.4786    0.1093 N   0  0  0  0  0  4  0  0  0  0  0  0
   -3.0712   -1.8714   -0.5459 C   0  0  0  0  0  0  0  0  0  0  0  0
   -2.9931   -2.3205   -1.8865 C   0  0  0  0  0  0  0  0  0  0  0  0
   -4.1533   -2.6912   -2.5745 C   0  0  0  0  0  0  0  0  0  0  0  0
   -5.4103   -2.6398   -1.9468 C   0  0  0  0  0  0  0  0  0  0  0  0
   -5.4912   -2.1917   -0.6197 C   0  0  0  0  0  0  0  0  0  0  0  0
   -4.3401   -1.7974    0.0773 C   0  0  0  0  0  0  0  0  0  0  0  0
    2.0990    2.8933   -0.0764 H   0  0  0  0  0  0  0  0  0  0  0  0
    2.1038    4.6964   -1.8031 H   0  0  0  0  0  0  0  0  0  0  0  0
    0.3821    4.6982   -3.6298 H   0  0  0  0  0  0  0  0  0  0  0  0
   -1.3633    2.8947   -3.6918 H   0  0  0  0  0  0  0  0  0  0  0  0
   -1.3985    1.1226   -1.9381 H   0  0  0  0  0  0  0  0  0  0  0  0
    0.0064    3.3063    1.8058 H   0  0  0  0  0  0  0  0  0  0  0  0
   -1.5130    5.2936    2.0258 H   0  0  0  0  0  0  0  0  0  0  0  0
   -3.9397    5.0846    1.4270 H   0  0  0  0  0  0  0  0  0  0  0  0
   -4.8427    2.8843    0.6258 H   0  0  0  0  0  0  0  0  0  0  0  0
   -3.3212    0.9041    0.4198 H   0  0  0  0  0  0  0  0  0  0  0  0
    0.5051    0.1877    3.3969 H   0  0  0  0  0  0  0  0  0  0  0  0
   -0.8980   -0.7360    4.0183 H   0  0  0  0  0  0  0  0  0  0  0  0
   -1.0396    1.0275    3.7106 H   0  0  0  0  0  0  0  0  0  0  0  0
   -2.8377   -3.0973    1.8758 H   0  0  0  0  0  0  0  0  0  0  0  0
   -2.8164   -1.9506    3.2565 H   0  0  0  0  0  0  0  0  0  0  0  0
   -1.3495   -2.8952    2.8413 H   0  0  0  0  0  0  0  0  0  0  0  0
   -1.1323   -1.1517   -0.4808 H   0  0  0  0  0  0  0  0  0  0  0  0
   -2.0092   -2.3868   -2.3749 H   0  0  0  0  0  0  0  0  0  0  0  0
   -4.0712   -3.0371   -3.6163 H   0  0  0  0  0  0  0  0  0  0  0  0
   -6.3179   -2.9408   -2.4901 H   0  0  0  0  0  0  0  0  0  0  0  0
   -6.4690   -2.1300   -0.1175 H   0  0  0  0  0  0  0  0  0  0  0  0
   -4.4255   -1.4100    1.1028 H   0  0  0  0  0  0  0  0  0  0  0  0
  1  8  1  0  0  0  0
  2  3  1  0  0  0  0
  2  1  1  0  0  0  0
  3 26  1  0  0  0  0
  4 27  1  0  0  0  0
  4  3  2  0  0  0  0
  5  4  1  0  0  0  0
  6  5  2  0  0  0  0
  6  7  1  0  0  0  0
  7  2  2  0  0  0  0
  8  9  1  0  0  0  0
  8 15  1  0  0  0  0
  9 10  1  0  0  0  0
 10 11  2  0  0  0  0
 10 31  1  0  0  0  0
 11 32  1  0  0  0  0
 12 33  1  0  0  0  0
 12 11  1  0  0  0  0
 13 12  2  0  0  0  0
 14 13  1  0  0  0  0
 14  9  2  0  0  0  0
 15 17  1  1  0  0  0
 15 16  1  0  0  0  0
 16 36  1  0  0  0  0
 16 38  1  0  0  0  0
 16 37  1  0  0  0  0
 17 18  1  0  0  0  0
 18 41  1  0  0  0  0
 18 40  1  0  0  0  0
 19 17  2  0  0  0  0
 20 25  1  0  0  0  0
 20 19  1  0  0  0  0
 21 20  2  0  0  0  0
 22 23  2  0  0  0  0
 22 21  1  0  0  0  0
 23 24  1  0  0  0  0
 24 46  1  0  0  0  0
 24 25  2  0  0  0  0
 25 47  1  0  0  0  0
 28  5  1  0  0  0  0
 29  6  1  0  0  0  0
 30  7  1  0  0  0  0
 34 13  1  0  0  0  0
 35 14  1  0  0  0  0
 39 18  1  0  0  0  0
 42 19  1  0  0  0  0
 43 21  1  0  0  0  0
 44 22  1  0  0  0  0
 45 23  1  0  0  0  0
M  END
