3
 OpenBabel05122313113D

 38 41  0  0  1  0  0  0  0  0999 V2000
    1.5498    2.7224   -0.0597 S   0  0  0  0  0  0  0  0  0  0  0  0
    1.3780    0.2082    0.1042 N   0  0  0  0  0  0  0  0  0  0  0  0
    0.0317    0.6033    0.1664 C   0  0  0  0  0  3  0  0  0  0  0  0
    2.3164    1.1907   -0.0102 C   0  0  2  0  0  3  0  0  0  0  0  0
   -0.0449    1.9948    0.0683 C   0  0  0  0  0  0  0  0  0  0  0  0
    1.7155   -1.1957    0.0253 C   0  0  0  0  0  0  0  0  0  0  0  0
    2.3500   -1.6798   -1.1283 C   0  0  0  0  0  0  0  0  0  0  0  0
    2.6006   -0.9889   -1.9460 H   0  0  0  0  0  0  0  0  0  0  0  0
    2.6445   -3.0487   -1.2230 C   0  0  0  0  0  0  0  0  0  0  0  0
    3.1345   -3.4379   -2.1278 H   0  0  0  0  0  0  0  0  0  0  0  0
    2.3086   -3.9146   -0.1705 C   0  0  0  0  0  0  0  0  0  0  0  0
    2.5389   -4.9879   -0.2483 H   0  0  0  0  0  0  0  0  0  0  0  0
    1.6769   -3.4123    0.9800 C   0  0  0  0  0  0  0  0  0  0  0  0
    1.4078   -4.0887    1.8049 H   0  0  0  0  0  0  0  0  0  0  0  0
    1.3677   -2.0477    1.0855 C   0  0  0  0  0  0  0  0  0  0  0  0
    0.8424   -1.6393    1.9638 H   0  0  0  0  0  0  0  0  0  0  0  0
    3.7717    1.0404   -0.0276 C   0  0  0  0  0  0  0  0  0  0  0  0
    4.5545    1.9251   -0.8096 C   0  0  0  0  0  0  0  0  0  0  0  0
    4.0536    2.6819   -1.4324 H   0  0  0  0  0  0  0  0  0  0  0  0
    5.9505    1.8271   -0.8122 C   0  0  0  0  0  0  0  0  0  0  0  0
    6.5427    2.5182   -1.4303 H   0  0  0  0  0  0  0  0  0  0  0  0
    6.5906    0.8447   -0.0393 C   0  0  0  0  0  0  0  0  0  0  0  0
    7.6879    0.7644   -0.0458 H   0  0  0  0  0  0  0  0  0  0  0  0
    5.8233   -0.0331    0.7447 C   0  0  0  0  0  0  0  0  0  0  0  0
    6.3183   -0.7964    1.3634 H   0  0  0  0  0  0  0  0  0  0  0  0
    4.4275    0.0595    0.7572 C   0  0  0  0  0  0  0  0  0  0  0  0
    3.8401   -0.6194    1.3898 H   0  0  0  0  0  0  0  0  0  0  0  0
   -1.2389    2.8446    0.0550 C   0  0  0  0  0  0  0  0  0  0  0  0
   -2.3894    2.4558    0.7843 C   0  0  0  0  0  0  0  0  0  0  0  0
   -2.3495    1.5391    1.3948 H   0  0  0  0  0  0  0  0  0  0  0  0
   -3.5459    3.2445    0.7430 C   0  0  0  0  0  0  0  0  0  0  0  0
   -4.4314    2.9306    1.3166 H   0  0  0  0  0  0  0  0  0  0  0  0
   -3.5759    4.4334   -0.0056 C   0  0  0  0  0  0  0  0  0  0  0  0
   -4.4883    5.0483   -0.0336 H   0  0  0  0  0  0  0  0  0  0  0  0
   -2.4322    4.8374   -0.7135 C   0  0  0  0  0  0  0  0  0  0  0  0
   -2.4454    5.7666   -1.3031 H   0  0  0  0  0  0  0  0  0  0  0  0
   -1.2746    4.0492   -0.6859 C   0  0  0  0  0  0  0  0  0  0  0  0
   -0.3918    4.3554   -1.2704 H   0  0  0  0  0  0  0  0  0  0  0  0
  1  4  1  0  0  0  0
  1  5  1  0  0  0  0
  2  3  1  0  0  0  0
  4 17  1  1  0  0  0
  4  2  1  0  0  0  0
  5  3  2  0  0  0  0
  6  2  1  0  0  0  0
  6 15  1  0  0  0  0
  7  6  2  0  0  0  0
  8  7  1  0  0  0  0
  9  7  1  0  0  0  0
  9 11  2  0  0  0  0
 10  9  1  0  0  0  0
 11 13  1  0  0  0  0
 12 11  1  0  0  0  0
 13 15  2  0  0  0  0
 13 14  1  0  0  0  0
 15 16  1  0  0  0  0
 17 26  1  0  0  0  0
 18 17  2  0  0  0  0
 19 18  1  0  0  0  0
 20 18  1  0  0  0  0
 20 22  2  0  0  0  0
 21 20  1  0  0  0  0
 22 24  1  0  0  0  0
 23 22  1  0  0  0  0
 24 26  2  0  0  0  0
 24 25  1  0  0  0  0
 26 27  1  0  0  0  0
 28  5  1  0  0  0  0
 28 29  1  0  0  0  0
 29 30  1  0  0  0  0
 31 29  2  0  0  0  0
 31 32  1  0  0  0  0
 33 31  1  0  0  0  0
 34 33  1  0  0  0  0
 35 37  1  0  0  0  0
 35 33  2  0  0  0  0
 36 35  1  0  0  0  0
 37 28  2  0  0  0  0
 38 37  1  0  0  0  0
M  END
