4
 OpenBabel05122313113D

 12 11  0  0  0  0  0  0  0  0999 V2000
    0.2516   -2.6224   -0.3940 C   0  0  0  0  0  3  0  0  0  0  0  0
   -0.6030   -2.9573    0.6798 C   0  0  0  0  0  0  0  0  0  0  0  0
   -0.2952   -2.8141    2.0743 C   0  0  0  0  0  0  0  0  0  0  0  0
    0.8972   -2.2598    2.6343 C   0  0  0  0  0  3  0  0  0  0  0  0
    2.0022   -1.8064    1.8710 C   0  0  0  0  0  3  0  0  0  0  0  0
    1.3281   -2.8355   -0.3770 H   0  0  0  0  0  0  0  0  0  0  0  0
   -0.2067   -2.6443   -1.3941 H   0  0  0  0  0  0  0  0  0  0  0  0
   -1.6619   -3.1676    0.4539 H   0  0  0  0  0  0  0  0  0  0  0  0
   -1.1093   -3.0464    2.7784 H   0  0  0  0  0  0  0  0  0  0  0  0
    0.8478   -2.0186    3.7091 H   0  0  0  0  0  0  0  0  0  0  0  0
    2.7760   -1.2357    2.4051 H   0  0  0  0  0  0  0  0  0  0  0  0
    2.3846   -2.3794    1.0171 H   0  0  0  0  0  0  0  0  0  0  0  0
  1  6  1  0  0  0  0
  1  2  1  0  0  0  0
  2  3  2  0  0  0  0
  3  4  1  0  0  0  0
  3  9  1  0  0  0  0
  4 10  1  0  0  0  0
  5 11  1  0  0  0  0
  5  4  1  0  0  0  0
  7  1  1  0  0  0  0
  8  2  1  0  0  0  0
 12  5  1  0  0  0  0
M  END
