1
 OpenBabel05122313113D

 19 19  0  0  1  0  0  0  0  0999 V2000
    1.2849   -1.0164    0.2157 C   0  0  1  0  0  3  0  0  0  0  0  0
    0.8780   -1.1687   -1.1731 C   0  0  0  0  0  0  0  0  0  0  0  0
    1.3684   -0.7168   -2.0454 H   0  0  0  0  0  0  0  0  0  0  0  0
   -0.2622   -2.0226   -1.2072 C   0  0  0  0  0  0  0  0  0  0  0  0
   -0.7984   -2.3375   -2.1105 H   0  0  0  0  0  0  0  0  0  0  0  0
   -0.5821   -2.4104    0.1472 C   0  0  0  0  0  0  0  0  0  0  0  0
   -1.4032   -3.0699    0.4525 H   0  0  0  0  0  0  0  0  0  0  0  0
    0.3588   -1.7913    1.0206 C   0  0  0  0  0  0  0  0  0  0  0  0
    0.3861   -1.8918    2.1135 H   0  0  0  0  0  0  0  0  0  0  0  0
    2.5300   -0.3455    0.7047 C   0  0  2  0  0  0  0  0  0  0  0  0
    2.4813   -0.1564    1.7935 H   0  0  0  0  0  0  0  0  0  0  0  0
    2.8590    0.9419   -0.0814 C   0  0  0  0  0  0  0  0  0  0  0  0
    3.6051    0.8854   -1.0482 O   0  0  0  0  0  0  0  0  0  0  0  0
    2.2464    2.0080    0.3935 O   0  0  0  0  0  0  0  0  0  0  0  0
    2.3960    2.7744   -0.2088 H   0  0  0  0  0  0  0  0  0  0  0  0
    3.7489   -1.2329    0.4089 N   0  3  0  0  0  0  0  0  0  0  0  0
    4.0940   -0.8612   -0.5217 H   0  0  0  0  0  0  0  0  0  0  0  0
    3.4894   -2.2315    0.3357 H   0  0  0  0  0  0  0  0  0  0  0  0
    4.5156   -1.1280    1.0976 H   0  0  0  0  0  0  0  0  0  0  0  0
  1 10  1  6  0  0  0
  1  8  1  0  0  0  0
  2  1  1  0  0  0  0
  3  2  1  0  0  0  0
  4  2  2  0  0  0  0
  4  6  1  0  0  0  0
  5  4  1  0  0  0  0
  6  7  1  0  0  0  0
  6  8  2  0  0  0  0
  8  9  1  0  0  0  0
 10 11  1  1  0  0  0
 12 14  1  0  0  0  0
 12 10  1  0  0  0  0
 13 12  2  0  0  0  0
 15 14  1  0  0  0  0
 16 10  1  0  0  0  0
 16 19  1  0  0  0  0
 17 16  1  0  0  0  0
 18 16  1  0  0  0  0
M  CHG  1  16   1
M  END
