1
 OpenBabel05122313113D

 19 19  0  0  1  0  0  0  0  0999 V2000
    0.8109    1.0362    0.1609 C   0  0  1  0  0  3  0  0  0  0  0  0
   -0.1772    1.7529    0.9428 C   0  0  0  0  0  0  0  0  0  0  0  0
   -0.1560    1.9044    2.0296 H   0  0  0  0  0  0  0  0  0  0  0  0
   -1.1865    2.2134    0.0522 C   0  0  0  0  0  0  0  0  0  0  0  0
   -2.0818    2.7776    0.3401 H   0  0  0  0  0  0  0  0  0  0  0  0
   -0.8415    1.8024   -1.2839 C   0  0  0  0  0  0  0  0  0  0  0  0
   -1.4237    1.9999   -2.1915 H   0  0  0  0  0  0  0  0  0  0  0  0
    0.3827    1.0752   -1.2209 C   0  0  0  0  0  0  0  0  0  0  0  0
    0.9063    0.6249   -2.0745 H   0  0  0  0  0  0  0  0  0  0  0  0
    2.0972    0.4707    0.6772 C   0  0  1  0  0  0  0  0  0  0  0  0
    2.0474    0.2946    1.7683 H   0  0  0  0  0  0  0  0  0  0  0  0
    2.5297   -0.8018   -0.0804 C   0  0  0  0  0  0  0  0  0  0  0  0
    3.2468    1.4407    0.3811 N   0  3  0  0  0  0  0  0  0  0  0  0
    2.9113    2.4130    0.2699 H   0  0  0  0  0  0  0  0  0  0  0  0
    3.6421    1.0693   -0.5304 H   0  0  0  0  0  0  0  0  0  0  0  0
    4.0024    1.4186    1.0894 H   0  0  0  0  0  0  0  0  0  0  0  0
    1.9752   -1.9007    0.3922 O   0  0  0  0  0  0  0  0  0  0  0  0
    2.2094   -2.6632   -0.1871 H   0  0  0  0  0  0  0  0  0  0  0  0
    3.2983   -0.7104   -1.0268 O   0  0  0  0  0  0  0  0  0  0  0  0
  1 10  1  6  0  0  0
  1  2  1  0  0  0  0
  2  3  1  0  0  0  0
  4  5  1  0  0  0  0
  4  2  2  0  0  0  0
  6  8  2  0  0  0  0
  6  4  1  0  0  0  0
  7  6  1  0  0  0  0
  8  1  1  0  0  0  0
  9  8  1  0  0  0  0
 10 11  1  1  0  0  0
 12 17  1  0  0  0  0
 12 10  1  0  0  0  0
 13 10  1  0  0  0  0
 13 16  1  0  0  0  0
 14 13  1  0  0  0  0
 15 13  1  0  0  0  0
 18 17  1  0  0  0  0
 19 12  2  0  0  0  0
M  CHG  1  13   1
M  END
