1
 OpenBabel05122313113D

 14 13  0  0  0  0  0  0  0  0999 V2000
    0.8527    1.9141   -0.6489 C   0  0  0  0  0  3  0  0  0  0  0  0
    1.1988    2.7302    0.3852 C   0  0  0  0  0  0  0  0  0  0  0  0
    0.9435    2.3429   -2.0932 C   0  0  0  0  0  0  0  0  0  0  0  0
    1.7075    4.1476    0.2591 C   0  0  0  0  0  0  0  0  0  0  0  0
    1.1197    2.2600    1.8290 C   0  0  0  0  0  0  0  0  0  0  0  0
    0.5812    3.3801   -2.2663 H   0  0  0  0  0  0  0  0  0  0  0  0
    1.9952    2.3168   -2.4546 H   0  0  0  0  0  0  0  0  0  0  0  0
    0.3683    1.6787   -2.7703 H   0  0  0  0  0  0  0  0  0  0  0  0
    2.7685    4.2198    0.5887 H   0  0  0  0  0  0  0  0  0  0  0  0
    1.6548    4.5262   -0.7784 H   0  0  0  0  0  0  0  0  0  0  0  0
    1.1330    4.8435    0.9092 H   0  0  0  0  0  0  0  0  0  0  0  0
    2.0990    2.3657    2.3444 H   0  0  0  0  0  0  0  0  0  0  0  0
    0.8476    1.1871    2.0056 H   0  0  0  0  0  0  0  0  0  0  0  0
    0.3797    2.8411    2.4219 H   0  0  0  0  0  0  0  0  0  0  0  0
  1  2  2  0  0  0  0
  2  5  1  0  0  0  0
  3  1  1  0  0  0  0
  4  2  1  0  0  0  0
  4  9  1  0  0  0  0
  4 11  1  0  0  0  0
  5 13  1  0  0  0  0
  5 12  1  0  0  0  0
  5 14  1  0  0  0  0
  6  3  1  0  0  0  0
  7  3  1  0  0  0  0
  8  3  1  0  0  0  0
 10  4  1  0  0  0  0
M  END
