8
 OpenBabel05122313113D

 35 36  0  0  1  0  0  0  0  0999 V2000
   -2.4533   -2.0902   -0.1968 O   0  0  0  0  0  0  0  0  0  0  0  0
    2.2962   -0.8196   -0.4775 C   0  0  1  0  0  0  0  0  0  0  0  0
    2.4348   -1.5434    0.8717 C   0  0  0  0  0  0  0  0  0  0  0  0
    1.5640   -2.7991    0.8940 C   0  0  0  0  0  0  0  0  0  0  0  0
    0.0780   -2.4588    0.7621 C   0  0  0  0  0  0  0  0  0  0  0  0
   -1.5533   -1.2208   -0.7187 C   0  0  0  0  0  0  0  0  0  0  0  0
   -1.8981   -0.1876   -1.6489 C   0  0  0  0  0  3  0  0  0  0  0  0
   -0.8784    0.6426   -2.1674 C   0  0  0  0  0  3  0  0  0  0  0  0
    0.4755    0.4585   -1.7635 C   0  0  0  0  0  0  0  0  0  0  0  0
    0.8316   -0.5393   -0.8168 C   0  0  0  0  0  0  0  0  0  0  0  0
   -0.2064   -1.3841   -0.2680 C   0  0  0  0  0  0  0  0  0  0  0  0
    3.2822    0.3657   -0.6765 C   0  0  0  0  0  0  0  0  0  0  0  0
    4.7396   -0.1155   -0.6098 C   0  0  0  0  0  0  0  0  0  0  0  0
    3.0539    1.5487    0.2714 C   0  0  0  0  0  0  0  0  0  0  0  0
   -3.8364   -1.9007   -0.4674 C   0  0  0  0  0  0  0  0  0  0  0  0
    2.5933   -1.5691   -1.2521 H   0  0  0  0  0  0  0  0  0  0  0  0
    2.1505   -0.8675    1.7043 H   0  0  0  0  0  0  0  0  0  0  0  0
    3.4954   -1.8190    1.0318 H   0  0  0  0  0  0  0  0  0  0  0  0
    1.7276   -3.3758    1.8268 H   0  0  0  0  0  0  0  0  0  0  0  0
    1.8722   -3.4649    0.0575 H   0  0  0  0  0  0  0  0  0  0  0  0
   -0.3240   -2.1149    1.7383 H   0  0  0  0  0  0  0  0  0  0  0  0
   -0.5147   -3.3601    0.5053 H   0  0  0  0  0  0  0  0  0  0  0  0
   -2.9412   -0.0156   -1.9387 H   0  0  0  0  0  0  0  0  0  0  0  0
   -1.1388    1.4547   -2.8600 H   0  0  0  0  0  0  0  0  0  0  0  0
    1.2430    1.1330   -2.1617 H   0  0  0  0  0  0  0  0  0  0  0  0
    3.1319    0.7314   -1.7163 H   0  0  0  0  0  0  0  0  0  0  0  0
    4.9162   -0.9922   -1.2673 H   0  0  0  0  0  0  0  0  0  0  0  0
    5.4285    0.6916   -0.9301 H   0  0  0  0  0  0  0  0  0  0  0  0
    5.0325   -0.4010    0.4212 H   0  0  0  0  0  0  0  0  0  0  0  0
    2.0364    1.9699    0.1667 H   0  0  0  0  0  0  0  0  0  0  0  0
    3.7838    2.3567    0.0622 H   0  0  0  0  0  0  0  0  0  0  0  0
    3.1813    1.2512    1.3317 H   0  0  0  0  0  0  0  0  0  0  0  0
   -4.1918   -0.9191   -0.0895 H   0  0  0  0  0  0  0  0  0  0  0  0
   -4.0596   -1.9897   -1.5531 H   0  0  0  0  0  0  0  0  0  0  0  0
   -4.3653   -2.7068    0.0727 H   0  0  0  0  0  0  0  0  0  0  0  0
  2 16  1  6  0  0  0
  2  3  1  0  0  0  0
  3  4  1  0  0  0  0
  3 18  1  0  0  0  0
  3 17  1  0  0  0  0
  4 19  1  0  0  0  0
  5  4  1  0  0  0  0
  5 21  1  0  0  0  0
  6 11  2  0  0  0  0
  6  1  1  0  0  0  0
  7  6  1  0  0  0  0
  8  9  1  0  0  0  0
  8  7  1  0  0  0  0
  9 10  2  0  0  0  0
 10  2  1  0  0  0  0
 10 11  1  0  0  0  0
 11  5  1  0  0  0  0
 12 13  1  0  0  0  0
 12  2  1  0  0  0  0
 12 14  1  0  0  0  0
 13 29  1  0  0  0  0
 14 32  1  0  0  0  0
 15  1  1  0  0  0  0
 15 33  1  0  0  0  0
 15 35  1  0  0  0  0
 20  4  1  0  0  0  0
 22  5  1  0  0  0  0
 23  7  1  0  0  0  0
 24  8  1  0  0  0  0
 25  9  1  0  0  0  0
 26 12  1  0  0  0  0
 27 13  1  0  0  0  0
 28 13  1  0  0  0  0
 30 14  1  0  0  0  0
 31 14  1  0  0  0  0
 34 15  1  0  0  0  0
M  END
