1
 OpenBabel05122313113D

 27 29  0  0  1  0  0  0  0  0999 V2000
   -0.7749    0.4012   -0.7633 C   0  0  0  0  0  3  0  0  0  0  0  0
   -0.8308    0.6296    0.6102 C   0  0  0  0  0  3  0  0  0  0  0  0
   -1.5465   -0.3112    1.5443 C   0  0  0  0  0  0  0  0  0  0  0  0
   -1.6138   -1.7699    1.0647 C   0  0  0  0  0  0  0  0  0  0  0  0
   -1.7761   -1.9524   -0.4382 C   0  0  2  0  0  0  0  0  0  0  0  0
   -1.3110   -0.8480   -1.3708 C   0  0  1  0  0  0  0  0  0  0  0  0
   -2.8019   -1.1949   -1.2576 C   0  0  2  0  0  0  0  0  0  0  0  0
   -3.8298   -0.2905   -0.6518 C   0  0  0  0  0  0  0  0  0  0  0  0
   -4.7906   -0.8214    0.2367 C   0  0  0  0  0  0  0  0  0  0  0  0
   -5.7735   -0.0005    0.8076 C   0  0  0  0  0  0  0  0  0  0  0  0
   -5.8146    1.3688    0.4972 C   0  0  0  0  0  0  0  0  0  0  0  0
   -4.8761    1.9054   -0.3979 C   0  0  0  0  0  0  0  0  0  0  0  0
   -3.8949    1.0813   -0.9700 C   0  0  0  0  0  0  0  0  0  0  0  0
   -0.6132    1.2617   -1.4319 H   0  0  0  0  0  0  0  0  0  0  0  0
   -0.6993    1.6623    0.9708 H   0  0  0  0  0  0  0  0  0  0  0  0
   -2.5770    0.0977    1.6424 H   0  0  0  0  0  0  0  0  0  0  0  0
   -1.1139   -0.2648    2.5641 H   0  0  0  0  0  0  0  0  0  0  0  0
   -2.4351   -2.2905    1.6008 H   0  0  0  0  0  0  0  0  0  0  0  0
   -0.6820   -2.2914    1.3645 H   0  0  0  0  0  0  0  0  0  0  0  0
   -1.5646   -2.9786   -0.7794 H   0  0  0  0  0  0  0  0  0  0  0  0
   -0.8331   -1.1467   -2.3170 H   0  0  0  0  0  0  0  0  0  0  0  0
   -3.1816   -1.7586   -2.1292 H   0  0  0  0  0  0  0  0  0  0  0  0
   -4.7588   -1.8944    0.4819 H   0  0  0  0  0  0  0  0  0  0  0  0
   -6.5123   -0.4315    1.5005 H   0  0  0  0  0  0  0  0  0  0  0  0
   -6.5824    2.0157    0.9481 H   0  0  0  0  0  0  0  0  0  0  0  0
   -4.9090    2.9752   -0.6552 H   0  0  0  0  0  0  0  0  0  0  0  0
   -3.1661    1.5050   -1.6765 H   0  0  0  0  0  0  0  0  0  0  0  0
  1  2  1  0  0  0  0
  2 15  1  0  0  0  0
  2  3  1  0  0  0  0
  3 16  1  0  0  0  0
  3 17  1  0  0  0  0
  4 19  1  0  0  0  0
  4  3  1  0  0  0  0
  4 18  1  0  0  0  0
  5 20  1  6  0  0  0
  5  4  1  0  0  0  0
  6 21  1  6  0  0  0
  6  7  1  0  0  0  0
  6  1  1  0  0  0  0
  6  5  1  0  0  0  0
  7 22  1  6  0  0  0
  7  8  1  0  0  0  0
  7  5  1  0  0  0  0
  8  9  1  0  0  0  0
  9 23  1  0  0  0  0
  9 10  2  0  0  0  0
 10 24  1  0  0  0  0
 11 10  1  0  0  0  0
 11 25  1  0  0  0  0
 12 11  2  0  0  0  0
 13  8  2  0  0  0  0
 13 12  1  0  0  0  0
 14  1  1  0  0  0  0
 26 12  1  0  0  0  0
 27 13  1  0  0  0  0
M  END
