1
 OpenBabel05122313113D

 46 52  0  0  0  0  0  0  0  0999 V2000
    0.2551   -0.5520   -1.5004 C   0  0  0  0  0  3  0  0  0  0  0  0
   -0.3032   -1.4033   -1.9025 H   0  0  0  0  0  0  0  0  0  0  0  0
   -0.2518    0.7744   -1.3423 C   0  0  0  0  0  0  0  0  0  0  0  0
    0.7996    1.6146   -0.8313 C   0  0  0  0  0  0  0  0  0  0  0  0
    1.9491    0.7619   -0.5879 C   0  0  0  0  0  0  0  0  0  0  0  0
    1.6293   -0.5414   -1.1164 C   0  0  0  0  0  0  0  0  0  0  0  0
   -1.5984    1.2735   -1.5461 C   0  0  0  0  0  0  0  0  0  0  0  0
   -2.6404    0.4278   -1.9942 C   0  0  0  0  0  0  0  0  0  0  0  0
   -2.4282   -0.6299   -2.2033 H   0  0  0  0  0  0  0  0  0  0  0  0
   -3.9369    0.9138   -2.1489 C   0  0  0  0  0  0  0  0  0  0  0  0
   -4.7388    0.2404   -2.4851 H   0  0  0  0  0  0  0  0  0  0  0  0
   -4.2131    2.2611   -1.8441 C   0  0  0  0  0  0  0  0  0  0  0  0
   -5.2367    2.6516   -1.9460 H   0  0  0  0  0  0  0  0  0  0  0  0
   -3.1933    3.1076   -1.4074 C   0  0  0  0  0  0  0  0  0  0  0  0
   -3.4413    4.1523   -1.1776 H   0  0  0  0  0  0  0  0  0  0  0  0
   -1.8594    2.6516   -1.2649 C   0  0  0  0  0  0  0  0  0  0  0  0
   -0.7480    3.5560   -0.9259 C   0  0  0  0  0  0  0  0  0  0  0  0
   -0.9441    4.9565   -0.8387 C   0  0  0  0  0  0  0  0  0  0  0  0
   -1.9568    5.3694   -0.9378 H   0  0  0  0  0  0  0  0  0  0  0  0
    0.1205    5.8406   -0.6679 C   0  0  0  0  0  0  0  0  0  0  0  0
   -0.0708    6.9225   -0.6079 H   0  0  0  0  0  0  0  0  0  0  0  0
    1.4372    5.3468   -0.6178 C   0  0  0  0  0  0  0  0  0  0  0  0
    2.2899    6.0382   -0.5446 H   0  0  0  0  0  0  0  0  0  0  0  0
    1.6600    3.9715   -0.6716 C   0  0  0  0  0  0  0  0  0  0  0  0
    2.6887    3.5914   -0.6655 H   0  0  0  0  0  0  0  0  0  0  0  0
    0.5872    3.0534   -0.7693 C   0  0  0  0  0  0  0  0  0  0  0  0
    3.1981    0.9384    0.1484 C   0  0  0  0  0  0  0  0  0  0  0  0
    3.3977    2.0026    1.0620 C   0  0  0  0  0  0  0  0  0  0  0  0
    2.5718    2.6975    1.2574 H   0  0  0  0  0  0  0  0  0  0  0  0
    4.5901    2.1349    1.7711 C   0  0  0  0  0  0  0  0  0  0  0  0
    4.7132    2.9632    2.4846 H   0  0  0  0  0  0  0  0  0  0  0  0
    5.6190    1.1919    1.5882 C   0  0  0  0  0  0  0  0  0  0  0  0
    6.5682    1.2908    2.1359 H   0  0  0  0  0  0  0  0  0  0  0  0
    5.4130    0.0973    0.7494 C   0  0  0  0  0  0  0  0  0  0  0  0
    6.2013   -0.6640    0.6780 H   0  0  0  0  0  0  0  0  0  0  0  0
    4.2027   -0.0810    0.0355 C   0  0  0  0  0  0  0  0  0  0  0  0
    3.9419   -1.3170   -0.7223 C   0  0  0  0  0  0  0  0  0  0  0  0
    4.9342   -2.3075   -0.9265 C   0  0  0  0  0  0  0  0  0  0  0  0
    5.9602   -2.1328   -0.5756 H   0  0  0  0  0  0  0  0  0  0  0  0
    4.6447   -3.5128   -1.5675 C   0  0  0  0  0  0  0  0  0  0  0  0
    5.4406   -4.2598   -1.7069 H   0  0  0  0  0  0  0  0  0  0  0  0
    3.3421   -3.7722   -2.0376 C   0  0  0  0  0  0  0  0  0  0  0  0
    3.1111   -4.7212   -2.5440 H   0  0  0  0  0  0  0  0  0  0  0  0
    2.3499   -2.8071   -1.8715 C   0  0  0  0  0  0  0  0  0  0  0  0
    1.3386   -2.9914   -2.2600 H   0  0  0  0  0  0  0  0  0  0  0  0
    2.6317   -1.5816   -1.2267 C   0  0  0  0  0  0  0  0  0  0  0  0
  1  3  1  0  0  0  0
  1  6  1  0  0  0  0
  2  1  1  0  0  0  0
  3  4  1  0  0  0  0
  4 26  2  0  0  0  0
  4  5  1  0  0  0  0
  5 27  1  0  0  0  0
  6  5  2  0  0  0  0
  7  3  2  0  0  0  0
  7 16  1  0  0  0  0
  8  7  1  0  0  0  0
  9  8  1  0  0  0  0
 10  8  2  0  0  0  0
 10 12  1  0  0  0  0
 11 10  1  0  0  0  0
 12 14  2  0  0  0  0
 13 12  1  0  0  0  0
 14 16  1  0  0  0  0
 14 15  1  0  0  0  0
 16 17  2  0  0  0  0
 17 18  1  0  0  0  0
 17 26  1  0  0  0  0
 18 20  2  0  0  0  0
 19 18  1  0  0  0  0
 20 22  1  0  0  0  0
 20 21  1  0  0  0  0
 22 23  1  0  0  0  0
 24 25  1  0  0  0  0
 24 22  2  0  0  0  0
 26 24  1  0  0  0  0
 27 28  1  0  0  0  0
 28 29  1  0  0  0  0
 28 30  2  0  0  0  0
 30 31  1  0  0  0  0
 32 30  1  0  0  0  0
 32 33  1  0  0  0  0
 34 32  2  0  0  0  0
 35 34  1  0  0  0  0
 36 27  2  0  0  0  0
 36 34  1  0  0  0  0
 37 36  1  0  0  0  0
 38 37  1  0  0  0  0
 38 39  1  0  0  0  0
 40 38  2  0  0  0  0
 41 40  1  0  0  0  0
 42 44  2  0  0  0  0
 42 40  1  0  0  0  0
 43 42  1  0  0  0  0
 44 46  1  0  0  0  0
 45 44  1  0  0  0  0
 46  6  1  0  0  0  0
 46 37  2  0  0  0  0
M  END
