7
 OpenBabel05122313113D

 29 31  0  0  0  0  0  0  0  0999 V2000
   -3.0632   -1.9795   -2.2862 F   0  0  0  0  0  0  0  0  0  0  0  0
   -2.0474   -0.9115    2.2011 F   0  0  0  0  0  0  0  0  0  0  0  0
    2.1884   -0.1682   -2.4004 F   0  0  0  0  0  0  0  0  0  0  0  0
    2.6253   -2.7786    1.5119 F   0  0  0  0  0  0  0  0  0  0  0  0
    0.9864   -1.8541   -0.4997 N   0  0  0  0  0  0  0  0  0  0  0  0
   -1.1634   -1.8498   -0.2935 N   0  0  0  0  0  0  0  0  0  0  0  0
   -0.0660   -1.0212   -0.1896 C   0  0  0  0  0  2  0  0  0  0  0  0
   -0.7978   -3.1539   -0.6517 C   0  0  0  0  0  0  0  0  0  0  0  0
   -1.5368   -3.9493   -0.7766 H   0  0  0  0  0  0  0  0  0  0  0  0
    0.5595   -3.1548   -0.7744 C   0  0  0  0  0  0  0  0  0  0  0  0
    1.2612   -3.9523   -1.0318 H   0  0  0  0  0  0  0  0  0  0  0  0
    2.3485   -1.4553   -0.4186 C   0  0  0  0  0  0  0  0  0  0  0  0
    3.1523   -1.9091    0.6453 C   0  0  0  0  0  0  0  0  0  0  0  0
    4.4735   -1.4803    0.7970 C   0  0  0  0  0  0  0  0  0  0  0  0
    5.0552   -1.8452    1.6540 H   0  0  0  0  0  0  0  0  0  0  0  0
    5.0045   -0.5790   -0.1364 C   0  0  0  0  0  0  0  0  0  0  0  0
    6.0399   -0.2269   -0.0205 H   0  0  0  0  0  0  0  0  0  0  0  0
    4.2385   -0.1238   -1.2200 C   0  0  0  0  0  0  0  0  0  0  0  0
    4.6411    0.5707   -1.9697 H   0  0  0  0  0  0  0  0  0  0  0  0
    2.9219   -0.5749   -1.3534 C   0  0  0  0  0  0  0  0  0  0  0  0
   -2.5021   -1.4449   -0.0568 C   0  0  0  0  0  0  0  0  0  0  0  0
   -2.9200   -0.9526    1.1970 C   0  0  0  0  0  0  0  0  0  0  0  0
   -4.2334   -0.5113    1.4008 C   0  0  0  0  0  0  0  0  0  0  0  0
   -4.5104   -0.1248    2.3911 H   0  0  0  0  0  0  0  0  0  0  0  0
   -5.1552   -0.5884    0.3473 C   0  0  0  0  0  0  0  0  0  0  0  0
   -6.1886   -0.2472    0.5049 H   0  0  0  0  0  0  0  0  0  0  0  0
   -4.7792   -1.0981   -0.9052 C   0  0  0  0  0  0  0  0  0  0  0  0
   -5.4826   -1.1648   -1.7461 H   0  0  0  0  0  0  0  0  0  0  0  0
   -3.4592   -1.5163   -1.0886 C   0  0  0  0  0  0  0  0  0  0  0  0
  1 29  1  0  0  0  0
  3 20  1  0  0  0  0
  5 12  1  0  0  0  0
  5  7  1  0  0  0  0
  6  7  1  0  0  0  0
  6 21  1  0  0  0  0
  8  6  1  0  0  0  0
  9  8  1  0  0  0  0
 10  8  2  0  0  0  0
 10  5  1  0  0  0  0
 11 10  1  0  0  0  0
 12 13  1  0  0  0  0
 13 14  2  0  0  0  0
 13  4  1  0  0  0  0
 14 15  1  0  0  0  0
 16 17  1  0  0  0  0
 16 14  1  0  0  0  0
 18 16  2  0  0  0  0
 19 18  1  0  0  0  0
 20 18  1  0  0  0  0
 20 12  2  0  0  0  0
 21 22  1  0  0  0  0
 22 23  2  0  0  0  0
 22  2  1  0  0  0  0
 23 24  1  0  0  0  0
 25 26  1  0  0  0  0
 25 23  1  0  0  0  0
 27 25  2  0  0  0  0
 28 27  1  0  0  0  0
 29 27  1  0  0  0  0
 29 21  2  0  0  0  0
M  END
