15
 OpenBabel05122313113D

 37 39  0  0  0  0  0  0  0  0999 V2000
    3.4899    2.4856   -0.7789 O   0  0  0  0  0  0  0  0  0  0  0  0
    2.3822   -1.9674   -1.3531 O   0  0  0  0  0  0  0  0  0  0  0  0
    2.9258    0.2738   -1.0661 N   0  0  0  0  0  0  0  0  0  0  0  0
    1.2809    1.9170   -0.4460 N   0  0  0  0  0  0  0  0  0  0  0  0
   -1.0078    0.9220   -0.1658 N   0  0  0  0  0  0  0  0  0  0  0  0
   -0.4882   -1.1520   -0.6480 N   0  0  0  0  0  0  0  0  0  0  0  0
    5.8391    0.7072    0.5749 C   0  0  0  0  0  0  0  0  0  0  0  0
    5.8151    1.7242    0.1561 H   0  0  0  0  0  0  0  0  0  0  0  0
    5.1331   -0.3212   -0.0805 C   0  0  0  0  0  0  0  0  0  0  0  0
    4.3463   -0.0340   -1.3433 C   0  0  0  0  0  0  0  0  0  0  0  0
    4.7652    0.8352   -1.8801 H   0  0  0  0  0  0  0  0  0  0  0  0
    4.3379   -0.9190   -2.0043 H   0  0  0  0  0  0  0  0  0  0  0  0
    2.0210   -0.8225   -1.0831 C   0  0  0  0  0  0  0  0  0  0  0  0
    0.6818   -0.4062   -0.7486 C   0  0  0  0  0  0  0  0  0  0  0  0
   -1.5288   -0.3617   -0.2944 C   0  0  0  0  0  2  0  0  0  0  0  0
    0.3489    0.9059   -0.4433 C   0  0  0  0  0  0  0  0  0  0  0  0
    2.6325    1.6111   -0.7654 C   0  0  0  0  0  0  0  0  0  0  0  0
   -0.5793   -2.5863   -0.8885 C   0  0  0  0  0  0  0  0  0  0  0  0
    0.0860   -3.1313   -0.1933 H   0  0  0  0  0  0  0  0  0  0  0  0
   -0.2645   -2.8196   -1.9226 H   0  0  0  0  0  0  0  0  0  0  0  0
   -1.6324   -2.8815   -0.7284 H   0  0  0  0  0  0  0  0  0  0  0  0
   -1.8500    2.0604    0.2136 C   0  0  0  0  0  0  0  0  0  0  0  0
   -2.8916    1.6970    0.3554 H   0  0  0  0  0  0  0  0  0  0  0  0
   -1.8505    2.8276   -0.5821 H   0  0  0  0  0  0  0  0  0  0  0  0
   -1.5001    2.5048    1.1634 H   0  0  0  0  0  0  0  0  0  0  0  0
    0.9777    3.3124   -0.1315 C   0  0  0  0  0  0  0  0  0  0  0  0
    0.2451    3.7324   -0.8458 H   0  0  0  0  0  0  0  0  0  0  0  0
    1.9305    3.8623   -0.2219 H   0  0  0  0  0  0  0  0  0  0  0  0
    0.5947    3.4147    0.9011 H   0  0  0  0  0  0  0  0  0  0  0  0
    5.8562   -1.8870    1.6457 C   0  0  0  0  0  0  0  0  0  0  0  0
    5.8635   -2.9061    2.0616 H   0  0  0  0  0  0  0  0  0  0  0  0
    6.5602   -0.8582    2.2921 C   0  0  0  0  0  0  0  0  0  0  0  0
    7.1202   -1.0684    3.2162 H   0  0  0  0  0  0  0  0  0  0  0  0
    6.5500    0.4385    1.7543 C   0  0  0  0  0  0  0  0  0  0  0  0
    7.1016    1.2481    2.2564 H   0  0  0  0  0  0  0  0  0  0  0  0
    5.1459   -1.6211    0.4658 C   0  0  0  0  0  0  0  0  0  0  0  0
    4.5857   -2.4201   -0.0431 H   0  0  0  0  0  0  0  0  0  0  0  0
  1 17  2  0  0  0  0
  2 13  2  0  0  0  0
  3 17  1  0  0  0  0
  4 16  1  0  0  0  0
  4 26  1  0  0  0  0
  5 22  1  0  0  0  0
  6 15  1  0  0  0  0
  7 34  1  0  0  0  0
  8  7  1  0  0  0  0
  9 36  1  0  0  0  0
  9  7  2  0  0  0  0
 10  3  1  0  0  0  0
 10  9  1  0  0  0  0
 11 10  1  0  0  0  0
 12 10  1  0  0  0  0
 13  3  1  0  0  0  0
 13 14  1  0  0  0  0
 14  6  1  0  0  0  0
 14 16  2  0  0  0  0
 15  5  1  0  0  0  0
 16  5  1  0  0  0  0
 17  4  1  0  0  0  0
 18 21  1  0  0  0  0
 18  6  1  0  0  0  0
 18 19  1  0  0  0  0
 20 18  1  0  0  0  0
 22 23  1  0  0  0  0
 22 25  1  0  0  0  0
 24 22  1  0  0  0  0
 26 29  1  0  0  0  0
 27 26  1  0  0  0  0
 28 26  1  0  0  0  0
 30 31  1  0  0  0  0
 30 32  1  0  0  0  0
 32 33  1  0  0  0  0
 34 35  1  0  0  0  0
 34 32  2  0  0  0  0
 36 30  2  0  0  0  0
 37 36  1  0  0  0  0
M  END
