3
 OpenBabel05122313113D

 12 12  0  0  0  0  0  0  0  0999 V2000
   -2.1112   -1.0492    0.0274 N   0  0  0  0  0  0  0  0  0  0  0  0
   -1.7367   -2.0011    0.0820 H   0  0  0  0  0  0  0  0  0  0  0  0
   -1.3073    0.0059   -0.0362 C   0  0  0  0  0  2  0  0  0  0  0  0
   -2.2208    1.2063   -0.1923 C   0  0  0  0  0  0  0  0  0  0  0  0
   -2.1339    1.5375   -1.2518 H   0  0  0  0  0  0  0  0  0  0  0  0
   -1.8766    2.0622    0.4185 H   0  0  0  0  0  0  0  0  0  0  0  0
   -3.6406    0.7111    0.1583 C   0  0  0  0  0  0  0  0  0  0  0  0
   -4.4389    1.1935   -0.4360 H   0  0  0  0  0  0  0  0  0  0  0  0
   -3.8540    0.9071    1.2283 H   0  0  0  0  0  0  0  0  0  0  0  0
   -3.5572   -0.8044   -0.0870 C   0  0  0  0  0  0  0  0  0  0  0  0
   -4.1187   -1.4120    0.6508 H   0  0  0  0  0  0  0  0  0  0  0  0
   -3.9076   -1.0962   -1.1024 H   0  0  0  0  0  0  0  0  0  0  0  0
  1  2  1  0  0  0  0
  3  1  1  0  0  0  0
  4  3  1  0  0  0  0
  4  7  1  0  0  0  0
  4  6  1  0  0  0  0
  5  4  1  0  0  0  0
  7  9  1  0  0  0  0
  8  7  1  0  0  0  0
 10  1  1  0  0  0  0
 10  7  1  0  0  0  0
 10 11  1  0  0  0  0
 12 10  1  0  0  0  0
M  END
