8
 OpenBabel05122313113D

 29 30  0  0  1  0  0  0  0  0999 V2000
    3.2147   -0.5118    0.1280 N   0  0  0  0  0  0  0  0  0  0  0  0
   -0.0409    2.6957    0.4723 C   0  0  0  0  0  0  0  0  0  0  0  0
   -1.1493    3.5205    0.4703 C   0  0  0  0  0  0  0  0  0  0  0  0
   -2.2148    3.3203   -0.4613 C   0  0  0  0  0  0  0  0  0  0  0  0
   -2.1378    2.3045   -1.3937 C   0  0  0  0  0  0  0  0  0  0  0  0
   -1.0004    1.4283   -1.4247 C   0  0  0  0  0  0  0  0  0  0  0  0
    0.0825    1.6280   -0.4873 C   0  0  0  0  0  0  0  0  0  0  0  0
    1.1232    0.6213   -0.5277 C   0  0  0  0  0  3  0  0  0  0  0  0
    2.4133    0.7285    0.2662 C   0  0  2  0  0  0  0  0  0  0  0  0
    3.3472    1.8511   -0.2794 C   0  0  0  0  0  0  0  0  0  0  0  0
    4.4126    1.0957   -1.0855 C   0  0  0  0  0  0  0  0  0  0  0  0
    4.5816   -0.1679   -0.2465 C   0  0  0  0  0  0  0  0  0  0  0  0
    3.1079   -1.4613    1.2117 C   0  0  0  0  0  0  0  0  0  0  0  0
    0.7674    2.8530    1.2010 H   0  0  0  0  0  0  0  0  0  0  0  0
   -1.2176    4.3409    1.2006 H   0  0  0  0  0  0  0  0  0  0  0  0
   -3.0891    3.9875   -0.4390 H   0  0  0  0  0  0  0  0  0  0  0  0
   -2.9361    2.1682   -2.1390 H   0  0  0  0  0  0  0  0  0  0  0  0
   -0.7892    0.8842   -2.3583 H   0  0  0  0  0  0  0  0  0  0  0  0
    1.3308    0.2533   -1.5516 H   0  0  0  0  0  0  0  0  0  0  0  0
    2.1797    0.9287    1.3381 H   0  0  0  0  0  0  0  0  0  0  0  0
    2.7939    2.6086   -0.8683 H   0  0  0  0  0  0  0  0  0  0  0  0
    3.8272    2.3788    0.5707 H   0  0  0  0  0  0  0  0  0  0  0  0
    5.3541    1.6645   -1.2142 H   0  0  0  0  0  0  0  0  0  0  0  0
    4.0301    0.8326   -2.0938 H   0  0  0  0  0  0  0  0  0  0  0  0
    5.2271    0.0519    0.6489 H   0  0  0  0  0  0  0  0  0  0  0  0
    5.0644   -1.0073   -0.7928 H   0  0  0  0  0  0  0  0  0  0  0  0
    2.0471   -1.7087    1.4016 H   0  0  0  0  0  0  0  0  0  0  0  0
    3.5446   -1.0865    2.1765 H   0  0  0  0  0  0  0  0  0  0  0  0
    3.6374   -2.4009    0.9477 H   0  0  0  0  0  0  0  0  0  0  0  0
  1  9  1  0  0  0  0
  1 13  1  0  0  0  0
  2 14  1  0  0  0  0
  3  2  1  0  0  0  0
  3 15  1  0  0  0  0
  4 16  1  0  0  0  0
  4  3  2  0  0  0  0
  5  4  1  0  0  0  0
  6  5  2  0  0  0  0
  6  7  1  0  0  0  0
  7  2  2  0  0  0  0
  8  7  1  0  0  0  0
  8  9  1  0  0  0  0
  9 20  1  1  0  0  0
 10  9  1  0  0  0  0
 10 22  1  0  0  0  0
 11 10  1  0  0  0  0
 11 12  1  0  0  0  0
 12  1  1  0  0  0  0
 12 25  1  0  0  0  0
 13 27  1  0  0  0  0
 13 28  1  0  0  0  0
 17  5  1  0  0  0  0
 18  6  1  0  0  0  0
 19  8  1  0  0  0  0
 21 10  1  0  0  0  0
 23 11  1  0  0  0  0
 24 11  1  0  0  0  0
 26 12  1  0  0  0  0
 29 13  1  0  0  0  0
M  END
