6
 OpenBabel05122313113D

 32 32  0  0  0  0  0  0  0  0999 V2000
   -0.8539    2.7427    0.7264 O   0  0  0  0  0  0  0  0  0  0  0  0
   -1.7324    3.0449    2.7944 O   0  0  0  0  0  0  0  0  0  0  0  0
   -3.7356    1.8185   -0.8324 O   0  0  0  0  0  0  0  0  0  0  0  0
   -2.4620    2.8023   -2.4320 O   0  0  0  0  0  0  0  0  0  0  0  0
   -0.4493    0.5161   -3.8364 N   0  0  0  0  0  0  0  0  0  0  0  0
   -1.4113   -0.0021   -0.4329 C   0  0  0  0  0  3  0  0  0  0  0  0
   -2.2891    0.0845    0.7611 C   0  0  0  0  0  0  0  0  0  0  0  0
   -3.2664   -1.0374    0.8916 C   0  0  0  0  0  0  0  0  0  0  0  0
   -3.5553   -1.6304    2.1393 C   0  0  0  0  0  0  0  0  0  0  0  0
   -4.4808   -2.6786    2.2361 C   0  0  0  0  0  0  0  0  0  0  0  0
   -5.1419   -3.1479    1.0900 C   0  0  0  0  0  0  0  0  0  0  0  0
   -4.8704   -2.5573   -0.1557 C   0  0  0  0  0  0  0  0  0  0  0  0
   -3.9372   -1.5176   -0.2552 C   0  0  0  0  0  0  0  0  0  0  0  0
   -2.2400    1.0388    1.7428 C   0  0  0  0  0  0  0  0  0  0  0  0
   -1.5222    2.3107    1.6604 C   0  0  0  0  0  0  0  0  0  0  0  0
   -1.1396    4.3432    2.7906 C   0  0  0  0  0  0  0  0  0  0  0  0
   -1.6716    0.7711   -1.5517 C   0  0  0  0  0  0  0  0  0  0  0  0
   -2.7416    1.8177   -1.5387 C   0  0  0  0  0  0  0  0  0  0  0  0
   -3.4093    3.8705   -2.4723 C   0  0  0  0  0  0  0  0  0  0  0  0
   -0.9525    0.6504   -2.7806 C   0  0  0  0  0  0  0  0  0  0  0  0
   -3.0194   -1.2908    3.0371 H   0  0  0  0  0  0  0  0  0  0  0  0
   -4.6805   -3.1382    3.2161 H   0  0  0  0  0  0  0  0  0  0  0  0
   -5.8684   -3.9712    1.1671 H   0  0  0  0  0  0  0  0  0  0  0  0
   -5.3952   -2.9065   -1.0582 H   0  0  0  0  0  0  0  0  0  0  0  0
   -3.7364   -1.0435   -1.2262 H   0  0  0  0  0  0  0  0  0  0  0  0
   -2.8984    0.9325    2.6160 H   0  0  0  0  0  0  0  0  0  0  0  0
   -1.4176    4.8111    3.7524 H   0  0  0  0  0  0  0  0  0  0  0  0
   -0.0365    4.2735    2.7005 H   0  0  0  0  0  0  0  0  0  0  0  0
   -1.5191    4.9508    1.9434 H   0  0  0  0  0  0  0  0  0  0  0  0
   -3.0847    4.5384   -3.2902 H   0  0  0  0  0  0  0  0  0  0  0  0
   -4.4331    3.4895   -2.6632 H   0  0  0  0  0  0  0  0  0  0  0  0
   -3.4198    4.4197   -1.5082 H   0  0  0  0  0  0  0  0  0  0  0  0
  1 15  2  0  0  0  0
  4 18  1  0  0  0  0
  5 20  3  0  0  0  0
  6  7  1  0  0  0  0
  7  8  1  0  0  0  0
  7 14  2  0  0  0  0
  8  9  1  0  0  0  0
  9 10  2  0  0  0  0
  9 21  1  0  0  0  0
 10 22  1  0  0  0  0
 11 23  1  0  0  0  0
 11 10  1  0  0  0  0
 12 11  2  0  0  0  0
 13 12  1  0  0  0  0
 13  8  2  0  0  0  0
 14 26  1  0  0  0  0
 15 14  1  0  0  0  0
 15  2  1  0  0  0  0
 16  2  1  0  0  0  0
 16 27  1  0  0  0  0
 17 18  1  0  0  0  0
 17  6  2  0  0  0  0
 18  3  2  0  0  0  0
 19  4  1  0  0  0  0
 19 32  1  0  0  0  0
 20 17  1  0  0  0  0
 24 12  1  0  0  0  0
 25 13  1  0  0  0  0
 28 16  1  0  0  0  0
 29 16  1  0  0  0  0
 30 19  1  0  0  0  0
 31 19  1  0  0  0  0
M  END
