6
 OpenBabel05122313113D

 37 37  0  0  0  0  0  0  0  0999 V2000
   -1.5948    1.0843    1.3304 C   0  0  0  0  0  0  0  0  0  0  0  0
   -2.0814   -0.2405    1.5390 C   0  0  0  0  0  0  0  0  0  0  0  0
   -2.0564   -0.7804    2.4906 H   0  0  0  0  0  0  0  0  0  0  0  0
   -2.5737   -0.7738    0.3116 C   0  0  0  0  0  0  0  0  0  0  0  0
   -2.4076    0.2446   -0.6946 C   0  0  0  0  0  0  0  0  0  0  0  0
   -1.7933    1.3704   -0.0640 C   0  0  0  0  0  3  0  0  0  0  0  0
   -1.5905    2.3298   -0.5501 H   0  0  0  0  0  0  0  0  0  0  0  0
   -1.1549    2.0604    2.4066 C   0  0  0  0  0  0  0  0  0  0  0  0
   -0.1968    2.5253    2.0886 H   0  0  0  0  0  0  0  0  0  0  0  0
   -0.9153    1.3728    3.7554 C   0  0  0  0  0  0  0  0  0  0  0  0
   -0.2173    0.5177    3.6613 H   0  0  0  0  0  0  0  0  0  0  0  0
   -1.8653    0.9843    4.1769 H   0  0  0  0  0  0  0  0  0  0  0  0
   -0.4936    2.0877    4.4894 H   0  0  0  0  0  0  0  0  0  0  0  0
   -2.1884    3.1950    2.5388 C   0  0  0  0  0  0  0  0  0  0  0  0
   -2.3259    3.7377    1.5821 H   0  0  0  0  0  0  0  0  0  0  0  0
   -1.8711    3.9301    3.3067 H   0  0  0  0  0  0  0  0  0  0  0  0
   -3.1761    2.7884    2.8392 H   0  0  0  0  0  0  0  0  0  0  0  0
   -3.2666   -2.1088    0.1356 C   0  0  0  0  0  0  0  0  0  0  0  0
   -3.1163   -2.4146   -0.9218 H   0  0  0  0  0  0  0  0  0  0  0  0
   -4.7800   -1.9517    0.3824 C   0  0  0  0  0  0  0  0  0  0  0  0
   -5.2327   -1.1910   -0.2831 H   0  0  0  0  0  0  0  0  0  0  0  0
   -4.9757   -1.6410    1.4297 H   0  0  0  0  0  0  0  0  0  0  0  0
   -5.3057   -2.9129    0.2084 H   0  0  0  0  0  0  0  0  0  0  0  0
   -2.6888   -3.2201    1.0206 C   0  0  0  0  0  0  0  0  0  0  0  0
   -1.6110   -3.3755    0.8267 H   0  0  0  0  0  0  0  0  0  0  0  0
   -3.2199   -4.1740    0.8281 H   0  0  0  0  0  0  0  0  0  0  0  0
   -2.8097   -2.9876    2.0990 H   0  0  0  0  0  0  0  0  0  0  0  0
   -2.9446    0.1886   -2.1098 C   0  0  0  0  0  0  0  0  0  0  0  0
   -3.1114   -0.8828   -2.3484 H   0  0  0  0  0  0  0  0  0  0  0  0
   -1.9919    0.7508   -3.1716 C   0  0  0  0  0  0  0  0  0  0  0  0
   -1.0214    0.2195   -3.1595 H   0  0  0  0  0  0  0  0  0  0  0  0
   -1.8078    1.8345   -3.0185 H   0  0  0  0  0  0  0  0  0  0  0  0
   -2.4309    0.6377   -4.1832 H   0  0  0  0  0  0  0  0  0  0  0  0
   -4.3025    0.9164   -2.1737 C   0  0  0  0  0  0  0  0  0  0  0  0
   -5.0206    0.5177   -1.4312 H   0  0  0  0  0  0  0  0  0  0  0  0
   -4.7563    0.8148   -3.1809 H   0  0  0  0  0  0  0  0  0  0  0  0
   -4.1745    1.9991   -1.9652 H   0  0  0  0  0  0  0  0  0  0  0  0
  1  2  2  0  0  0  0
  1  8  1  0  0  0  0
  2  3  1  0  0  0  0
  4  2  1  0  0  0  0
  5  6  1  0  0  0  0
  5  4  2  0  0  0  0
  6  1  1  0  0  0  0
  7  6  1  0  0  0  0
  8 14  1  0  0  0  0
  8 10  1  0  0  0  0
  9  8  1  0  0  0  0
 10 12  1  0  0  0  0
 10 13  1  0  0  0  0
 11 10  1  0  0  0  0
 14 17  1  0  0  0  0
 14 16  1  0  0  0  0
 15 14  1  0  0  0  0
 18  4  1  0  0  0  0
 18 20  1  0  0  0  0
 18 24  1  0  0  0  0
 19 18  1  0  0  0  0
 20 22  1  0  0  0  0
 21 20  1  0  0  0  0
 23 20  1  0  0  0  0
 24 27  1  0  0  0  0
 25 24  1  0  0  0  0
 26 24  1  0  0  0  0
 28  5  1  0  0  0  0
 29 28  1  0  0  0  0
 30 31  1  0  0  0  0
 30 32  1  0  0  0  0
 30 28  1  0  0  0  0
 33 30  1  0  0  0  0
 34 28  1  0  0  0  0
 34 37  1  0  0  0  0
 34 35  1  0  0  0  0
 36 34  1  0  0  0  0
M  END
