5
 OpenBabel05122313113D

 28 28  0  0  0  0  0  0  0  0999 V2000
   -2.4425    0.8668    0.0941 C   0  0  0  0  0  0  0  0  0  0  0  0
   -2.4155   -0.1654   -0.9177 C   0  0  0  0  0  0  0  0  0  0  0  0
   -1.5505    0.2786   -1.9611 C   0  0  0  0  0  0  0  0  0  0  0  0
   -1.3336   -0.2680   -2.8864 H   0  0  0  0  0  0  0  0  0  0  0  0
   -1.0423    1.5696   -1.6151 C   0  0  0  0  0  3  0  0  0  0  0  0
   -0.3661    2.1849   -2.2195 H   0  0  0  0  0  0  0  0  0  0  0  0
   -1.6059    1.9298   -0.3575 C   0  0  0  0  0  0  0  0  0  0  0  0
   -1.3971    2.8540    0.1924 H   0  0  0  0  0  0  0  0  0  0  0  0
   -3.2989    0.8743    1.3430 C   0  0  0  0  0  0  0  0  0  0  0  0
   -3.5205   -0.1860    1.5896 H   0  0  0  0  0  0  0  0  0  0  0  0
   -2.6025    1.4935    2.5618 C   0  0  0  0  0  0  0  0  0  0  0  0
   -1.6760    0.9472    2.8204 H   0  0  0  0  0  0  0  0  0  0  0  0
   -3.2790    1.4677    3.4398 H   0  0  0  0  0  0  0  0  0  0  0  0
   -2.3318    2.5544    2.3832 H   0  0  0  0  0  0  0  0  0  0  0  0
   -4.6326    1.5931    1.0578 C   0  0  0  0  0  0  0  0  0  0  0  0
   -5.1720    1.1446    0.2006 H   0  0  0  0  0  0  0  0  0  0  0  0
   -4.4564    2.6626    0.8196 H   0  0  0  0  0  0  0  0  0  0  0  0
   -5.2986    1.5469    1.9435 H   0  0  0  0  0  0  0  0  0  0  0  0
   -3.2573   -1.4239   -0.9394 C   0  0  0  0  0  0  0  0  0  0  0  0
   -3.5120   -1.6642    0.1143 H   0  0  0  0  0  0  0  0  0  0  0  0
   -4.5674   -1.1578   -1.7069 C   0  0  0  0  0  0  0  0  0  0  0  0
   -5.2292   -2.0473   -1.6731 H   0  0  0  0  0  0  0  0  0  0  0  0
   -4.3576   -0.9281   -2.7723 H   0  0  0  0  0  0  0  0  0  0  0  0
   -5.1254   -0.2998   -1.2846 H   0  0  0  0  0  0  0  0  0  0  0  0
   -2.5292   -2.6412   -1.5241 C   0  0  0  0  0  0  0  0  0  0  0  0
   -1.6327   -2.8932   -0.9256 H   0  0  0  0  0  0  0  0  0  0  0  0
   -2.2209   -2.4671   -2.5766 H   0  0  0  0  0  0  0  0  0  0  0  0
   -3.1968   -3.5261   -1.5238 H   0  0  0  0  0  0  0  0  0  0  0  0
  1  9  1  0  0  0  0
  2  1  1  0  0  0  0
  3  5  1  0  0  0  0
  3  2  2  0  0  0  0
  4  3  1  0  0  0  0
  5  7  1  0  0  0  0
  6  5  1  0  0  0  0
  7  1  2  0  0  0  0
  7  8  1  0  0  0  0
  9 10  1  0  0  0  0
  9 11  1  0  0  0  0
 11 12  1  0  0  0  0
 11 13  1  0  0  0  0
 14 11  1  0  0  0  0
 15  9  1  0  0  0  0
 15 18  1  0  0  0  0
 16 15  1  0  0  0  0
 17 15  1  0  0  0  0
 19  2  1  0  0  0  0
 19 20  1  0  0  0  0
 21 22  1  0  0  0  0
 21 24  1  0  0  0  0
 21 19  1  0  0  0  0
 23 21  1  0  0  0  0
 25 28  1  0  0  0  0
 25 19  1  0  0  0  0
 25 26  1  0  0  0  0
 27 25  1  0  0  0  0
M  END
