3
 OpenBabel05122313113D

 15 15  0  0  0  0  0  0  0  0999 V2000
    1.1511    2.4370   -1.9058 N   0  0  0  0  0  0  0  0  0  0  0  0
    0.2945    1.6531   -2.6502 C   0  0  0  0  0  0  0  0  0  0  0  0
   -1.0636    1.9040   -2.2670 C   0  0  0  0  0  3  0  0  0  0  0  0
   -1.9601    1.4476   -2.7026 H   0  0  0  0  0  0  0  0  0  0  0  0
   -1.0108    2.9508   -1.2904 C   0  0  0  0  0  0  0  0  0  0  0  0
   -1.8603    3.4229   -0.7832 H   0  0  0  0  0  0  0  0  0  0  0  0
    0.3682    3.2346   -1.0910 C   0  0  0  0  0  0  0  0  0  0  0  0
    0.7777    0.8351   -3.8054 C   0  0  0  0  0  0  0  0  0  0  0  0
    0.8365    1.4738   -4.7120 H   0  0  0  0  0  0  0  0  0  0  0  0
    0.0957   -0.0085   -4.0212 H   0  0  0  0  0  0  0  0  0  0  0  0
    1.7926    0.4398   -3.6143 H   0  0  0  0  0  0  0  0  0  0  0  0
    0.9739    4.2606   -0.1917 C   0  0  0  0  0  0  0  0  0  0  0  0
    1.7692    3.8152    0.4388 H   0  0  0  0  0  0  0  0  0  0  0  0
    0.2142    4.7049    0.4764 H   0  0  0  0  0  0  0  0  0  0  0  0
    1.4310    5.0672   -0.8010 H   0  0  0  0  0  0  0  0  0  0  0  0
  1  7  1  0  0  0  0
  2  3  1  0  0  0  0
  2  1  2  0  0  0  0
  3  5  1  0  0  0  0
  4  3  1  0  0  0  0
  5  7  2  0  0  0  0
  5  6  1  0  0  0  0
  7 12  1  0  0  0  0
  8 11  1  0  0  0  0
  8  2  1  0  0  0  0
  9  8  1  0  0  0  0
 10  8  1  0  0  0  0
 12 13  1  0  0  0  0
 12 14  1  0  0  0  0
 15 12  1  0  0  0  0
M  END
