2
 OpenBabel05122313113D

 14 14  0  0  1  0  0  0  0  0999 V2000
    1.1231   -0.2194   -2.1626 C   0  0  0  0  0  3  0  0  0  0  0  0
    1.9209    0.1070   -1.0340 C   0  0  2  0  0  3  0  0  0  0  0  0
    2.3091   -0.7856    0.0504 C   0  0  2  0  0  3  0  0  0  0  0  0
    2.8866    0.3785    0.8891 C   0  0  0  0  0  0  0  0  0  0  0  0
    2.9389   -2.1409   -0.0665 C   0  0  0  0  0  0  0  0  0  0  0  0
    2.4246    1.2985   -0.2810 C   0  0  0  0  0  0  0  0  0  0  0  0
    2.5573    2.4860   -0.5218 O   0  0  0  0  0  0  0  0  0  0  0  0
    0.7530    0.6044   -2.7938 H   0  0  0  0  0  0  0  0  0  0  0  0
    1.3048   -1.1662   -2.6924 H   0  0  0  0  0  0  0  0  0  0  0  0
    2.4380    0.5625    1.8856 H   0  0  0  0  0  0  0  0  0  0  0  0
    3.9950    0.3701    0.9933 H   0  0  0  0  0  0  0  0  0  0  0  0
    2.8680   -2.7157    0.8785 H   0  0  0  0  0  0  0  0  0  0  0  0
    4.0195   -2.0284   -0.3062 H   0  0  0  0  0  0  0  0  0  0  0  0
    2.4616   -2.7390   -0.8674 H   0  0  0  0  0  0  0  0  0  0  0  0
  2  1  1  1  0  0  0
  2  6  1  0  0  0  0
  2  3  1  0  0  0  0
  3  5  1  6  0  0  0
  3  4  1  0  0  0  0
  4 11  1  0  0  0  0
  4 10  1  0  0  0  0
  5 12  1  0  0  0  0
  6  4  1  0  0  0  0
  7  6  2  0  0  0  0
  8  1  1  0  0  0  0
  9  1  1  0  0  0  0
 13  5  1  0  0  0  0
 14  5  1  0  0  0  0
M  END
