1
 OpenBabel05122313113D

 18 18  0  0  0  0  0  0  0  0999 V2000
    1.5284   -1.4253    0.5536 C   0  0  0  0  0  3  0  0  0  0  0  0
    2.1835   -2.4576    0.4346 O   0  0  0  0  0  0  0  0  0  0  0  0
    2.0041   -0.3464    1.2644 N   0  0  0  0  0  0  0  0  0  0  0  0
    1.4683    0.5217    1.2198 H   0  0  0  0  0  0  0  0  0  0  0  0
    3.3578   -0.3134    1.8096 C   0  0  0  0  0  0  0  0  0  0  0  0
    3.6016   -1.3462    2.1273 H   0  0  0  0  0  0  0  0  0  0  0  0
    3.3526    0.3367    2.7083 H   0  0  0  0  0  0  0  0  0  0  0  0
    4.3860    0.1791    0.8091 C   0  0  0  0  0  0  0  0  0  0  0  0
    4.6961    1.5490    0.7091 C   0  0  0  0  0  0  0  0  0  0  0  0
    4.2301    2.2628    1.4081 H   0  0  0  0  0  0  0  0  0  0  0  0
    5.5878    2.0128   -0.2704 C   0  0  0  0  0  0  0  0  0  0  0  0
    5.8229    3.0865   -0.3347 H   0  0  0  0  0  0  0  0  0  0  0  0
    6.1824    1.1069   -1.1635 C   0  0  0  0  0  0  0  0  0  0  0  0
    6.8840    1.4677   -1.9311 H   0  0  0  0  0  0  0  0  0  0  0  0
    5.8811   -0.2621   -1.0699 C   0  0  0  0  0  0  0  0  0  0  0  0
    6.3444   -0.9767   -1.7675 H   0  0  0  0  0  0  0  0  0  0  0  0
    4.9883   -0.7235   -0.0915 C   0  0  0  0  0  0  0  0  0  0  0  0
    4.7247   -1.7903   -0.0281 H   0  0  0  0  0  0  0  0  0  0  0  0
  1  3  1  0  0  0  0
  2  1  2  0  0  0  0
  3  5  1  0  0  0  0
  4  3  1  0  0  0  0
  5  6  1  0  0  0  0
  5  7  1  0  0  0  0
  8  5  1  0  0  0  0
  9  8  1  0  0  0  0
  9 10  1  0  0  0  0
 11  9  2  0  0  0  0
 12 11  1  0  0  0  0
 13 15  2  0  0  0  0
 13 11  1  0  0  0  0
 14 13  1  0  0  0  0
 15 17  1  0  0  0  0
 16 15  1  0  0  0  0
 17 18  1  0  0  0  0
 17  8  2  0  0  0  0
M  END
