7
 OpenBabel05122313113D

 16 16  0  0  0  0  0  0  0  0999 V2000
   -5.3686    0.0003   -0.0024 S   0  0  0  0  0  0  0  0  0  0  0  0
   -5.4353    1.1619    1.1596 F   0  0  0  0  0  0  0  0  0  0  0  0
   -5.4356   -1.1613    1.1596 F   0  0  0  0  0  0  0  0  0  0  0  0
   -5.4366    1.1622   -1.1644 F   0  0  0  0  0  0  0  0  0  0  0  0
   -5.4368   -1.1616   -1.1644 F   0  0  0  0  0  0  0  0  0  0  0  0
   -7.0059    0.0005   -0.0017 F   0  0  0  0  0  0  0  0  0  0  0  0
   -0.7191   -0.0000   -0.0086 C   0  0  0  0  0  3  0  0  0  0  0  0
   -1.4603   -0.0001   -1.2136 C   0  0  0  0  0  0  0  0  0  0  0  0
   -0.9351   -0.0002   -2.1810 H   0  0  0  0  0  0  0  0  0  0  0  0
   -2.8630    0.0000   -1.2252 C   0  0  0  0  0  0  0  0  0  0  0  0
   -3.4130    0.0000   -2.1752 H   0  0  0  0  0  0  0  0  0  0  0  0
   -3.5483    0.0001   -0.0040 C   0  0  0  0  0  0  0  0  0  0  0  0
   -2.8592    0.0001    1.2150 C   0  0  0  0  0  0  0  0  0  0  0  0
   -3.4066    0.0001    2.1666 H   0  0  0  0  0  0  0  0  0  0  0  0
   -1.4555   -0.0000    1.2000 C   0  0  0  0  0  0  0  0  0  0  0  0
   -0.9306   -0.0000    2.1652 H   0  0  0  0  0  0  0  0  0  0  0  0
  1  6  1  0  0  0  0
  1  2  1  0  0  0  0
  1  3  1  0  0  0  0
  4  1  1  0  0  0  0
  5  1  1  0  0  0  0
  7 15  1  0  0  0  0
  8  7  2  0  0  0  0
  9  8  1  0  0  0  0
 10  8  1  0  0  0  0
 10 12  2  0  0  0  0
 11 10  1  0  0  0  0
 12  1  1  0  0  0  0
 12 13  1  0  0  0  0
 13 14  1  0  0  0  0
 15 13  2  0  0  0  0
 15 16  1  0  0  0  0
M  END
