1
 OpenBabel05122313113D

 47 47  0  0  0  0  0  0  0  0999 V2000
   -0.0252    0.0786   -0.1015 C   0  0  0  0  0  3  0  0  0  0  0  0
   -0.8184    1.2578   -0.0798 C   0  0  0  0  0  0  0  0  0  0  0  0
   -2.2247    1.1657   -0.0037 C   0  0  0  0  0  0  0  0  0  0  0  0
   -2.8874   -0.0704    0.0542 C   0  0  0  0  0  0  0  0  0  0  0  0
   -2.0937   -1.2328    0.0361 C   0  0  0  0  0  0  0  0  0  0  0  0
   -0.6900   -1.1802   -0.0383 C   0  0  0  0  0  0  0  0  0  0  0  0
   -0.1463    2.6575   -0.1353 C   0  0  0  0  0  0  0  0  0  0  0  0
    0.6790    2.7918   -1.4334 C   0  0  0  0  0  0  0  0  0  0  0  0
    0.7930    2.8308    1.0785 C   0  0  0  0  0  0  0  0  0  0  0  0
   -1.1647    3.8124   -0.1063 C   0  0  0  0  0  0  0  0  0  0  0  0
   -4.4205   -0.1940    0.1362 C   0  0  0  0  0  0  0  0  0  0  0  0
   -4.8050   -0.9428    1.4326 C   0  0  0  0  0  0  0  0  0  0  0  0
   -5.1175    1.1776    0.1480 C   0  0  0  0  0  0  0  0  0  0  0  0
   -4.9357   -0.9877   -1.0861 C   0  0  0  0  0  0  0  0  0  0  0  0
    0.1288   -2.5006   -0.0455 C   0  0  0  0  0  0  0  0  0  0  0  0
    0.9673   -2.5870   -1.3393 C   0  0  0  0  0  0  0  0  0  0  0  0
    1.0713   -2.5295    1.1782 C   0  0  0  0  0  0  0  0  0  0  0  0
   -0.7575   -3.7580    0.0196 C   0  0  0  0  0  0  0  0  0  0  0  0
   -2.8236    2.0830    0.0112 H   0  0  0  0  0  0  0  0  0  0  0  0
   -2.5997   -2.2068    0.0831 H   0  0  0  0  0  0  0  0  0  0  0  0
    1.1637    3.7891   -1.4960 H   0  0  0  0  0  0  0  0  0  0  0  0
    1.4797    2.0188   -1.4708 H   0  0  0  0  0  0  0  0  0  0  0  0
    0.0410    2.6515   -2.3291 H   0  0  0  0  0  0  0  0  0  0  0  0
    0.2370    2.7371    2.0331 H   0  0  0  0  0  0  0  0  0  0  0  0
    1.5778    2.0397    1.0725 H   0  0  0  0  0  0  0  0  0  0  0  0
    1.2969    3.8205    1.0558 H   0  0  0  0  0  0  0  0  0  0  0  0
   -1.7736    3.8048    0.8201 H   0  0  0  0  0  0  0  0  0  0  0  0
   -0.6318    4.7845   -0.1468 H   0  0  0  0  0  0  0  0  0  0  0  0
   -1.8558    3.7754   -0.9723 H   0  0  0  0  0  0  0  0  0  0  0  0
   -4.3597   -1.9570    1.4662 H   0  0  0  0  0  0  0  0  0  0  0  0
   -4.4496   -0.3904    2.3260 H   0  0  0  0  0  0  0  0  0  0  0  0
   -5.9072   -1.0540    1.5098 H   0  0  0  0  0  0  0  0  0  0  0  0
   -4.9009    1.7570   -0.7721 H   0  0  0  0  0  0  0  0  0  0  0  0
   -6.2167    1.0422    0.2080 H   0  0  0  0  0  0  0  0  0  0  0  0
   -4.8071    1.7893    1.0190 H   0  0  0  0  0  0  0  0  0  0  0  0
   -4.4947   -2.0034   -1.1291 H   0  0  0  0  0  0  0  0  0  0  0  0
   -6.0398   -1.0990   -1.0451 H   0  0  0  0  0  0  0  0  0  0  0  0
   -4.6750   -0.4684   -2.0306 H   0  0  0  0  0  0  0  0  0  0  0  0
    1.5854   -3.5101   -1.3553 H   0  0  0  0  0  0  0  0  0  0  0  0
    0.3164   -2.5822   -2.2368 H   0  0  0  0  0  0  0  0  0  0  0  0
    1.6466   -1.7076   -1.4238 H   0  0  0  0  0  0  0  0  0  0  0  0
    1.6959   -3.4485    1.1816 H   0  0  0  0  0  0  0  0  0  0  0  0
    1.7445   -1.6413    1.1671 H   0  0  0  0  0  0  0  0  0  0  0  0
    0.4962   -2.4905    2.1253 H   0  0  0  0  0  0  0  0  0  0  0  0
   -0.1225   -4.6676    0.0102 H   0  0  0  0  0  0  0  0  0  0  0  0
   -1.3670   -3.7870    0.9452 H   0  0  0  0  0  0  0  0  0  0  0  0
   -1.4454   -3.8230   -0.8474 H   0  0  0  0  0  0  0  0  0  0  0  0
  1  2  2  0  0  0  0
  1  6  1  0  0  0  0
  2  3  1  0  0  0  0
  3 19  1  0  0  0  0
  3  4  2  0  0  0  0
  4 11  1  0  0  0  0
  5  4  1  0  0  0  0
  5 20  1  0  0  0  0
  6  5  2  0  0  0  0
  7 10  1  0  0  0  0
  7  2  1  0  0  0  0
  7  9  1  0  0  0  0
  8  7  1  0  0  0  0
  9 24  1  0  0  0  0
 10 27  1  0  0  0  0
 11 13  1  0  0  0  0
 11 12  1  0  0  0  0
 12 30  1  0  0  0  0
 12 32  1  0  0  0  0
 12 31  1  0  0  0  0
 13 34  1  0  0  0  0
 13 35  1  0  0  0  0
 14 37  1  0  0  0  0
 14 11  1  0  0  0  0
 15  6  1  0  0  0  0
 15 18  1  0  0  0  0
 15 17  1  0  0  0  0
 16 15  1  0  0  0  0
 17 42  1  0  0  0  0
 17 44  1  0  0  0  0
 18 46  1  0  0  0  0
 21  8  1  0  0  0  0
 22  8  1  0  0  0  0
 23  8  1  0  0  0  0
 25  9  1  0  0  0  0
 26  9  1  0  0  0  0
 28 10  1  0  0  0  0
 29 10  1  0  0  0  0
 33 13  1  0  0  0  0
 36 14  1  0  0  0  0
 38 14  1  0  0  0  0
 39 16  1  0  0  0  0
 40 16  1  0  0  0  0
 41 16  1  0  0  0  0
 43 17  1  0  0  0  0
 45 18  1  0  0  0  0
 47 18  1  0  0  0  0
M  END
