13
 OpenBabel05122313113D

 38 40  0  0  0  0  0  0  0  0999 V2000
   -2.5137    0.9107   -1.4303 N   0  0  0  0  0  0  0  0  0  0  0  0
   -2.1016   -2.2678    1.5690 C   0  0  0  0  0  0  0  0  0  0  0  0
   -2.5675   -0.0669    0.5248 N   0  0  0  0  0  0  0  0  0  0  0  0
   -1.1803   -2.8308    0.6734 C   0  0  0  0  0  0  0  0  0  0  0  0
   -0.4923   -2.1787    0.1131 H   0  0  0  0  0  0  0  0  0  0  0  0
   -3.8682    0.7625   -1.1070 C   0  0  0  0  0  0  0  0  0  0  0  0
   -2.1366   -0.7593    1.7373 C   0  0  0  0  0  0  0  0  0  0  0  0
   -2.8155   -0.4691    2.5622 H   0  0  0  0  0  0  0  0  0  0  0  0
   -1.1279   -0.3706    1.9849 H   0  0  0  0  0  0  0  0  0  0  0  0
   -5.0605    1.1135   -1.7630 C   0  0  0  0  0  0  0  0  0  0  0  0
   -5.0635    1.6151   -2.7384 H   0  0  0  0  0  0  0  0  0  0  0  0
   -3.8993    0.1211    0.1549 C   0  0  0  0  0  0  0  0  0  0  0  0
   -1.7242    0.4037   -0.4421 C   0  0  0  0  0  2  0  0  0  0  0  0
   -1.1260   -4.2261    0.4754 C   0  0  0  0  0  0  0  0  0  0  0  0
    0.6874   -5.0930   -1.1850 N   0  0  0  0  0  0  0  0  0  0  0  0
   -0.1483   -4.7407   -0.4393 C   0  0  0  0  0  0  0  0  0  0  0  0
   -1.9668    1.5455   -2.6490 C   0  0  0  0  0  0  0  0  0  0  0  0
   -0.8672    1.4902   -2.4923 H   0  0  0  0  0  0  0  0  0  0  0  0
   -2.9732   -3.1187    2.2727 C   0  0  0  0  0  0  0  0  0  0  0  0
   -3.6979   -2.6926    2.9843 H   0  0  0  0  0  0  0  0  0  0  0  0
   -6.2630    0.7995   -1.1188 C   0  0  0  0  0  0  0  0  0  0  0  0
   -7.2134    1.0618   -1.6056 H   0  0  0  0  0  0  0  0  0  0  0  0
   -5.1038   -0.1955    0.7996 C   0  0  0  0  0  0  0  0  0  0  0  0
   -5.1244   -0.6995    1.7754 H   0  0  0  0  0  0  0  0  0  0  0  0
   -6.2869    0.1564    0.1400 C   0  0  0  0  0  0  0  0  0  0  0  0
   -7.2545   -0.0719    0.6097 H   0  0  0  0  0  0  0  0  0  0  0  0
   -2.9251   -4.5101    2.0800 C   0  0  0  0  0  0  0  0  0  0  0  0
   -3.6135   -5.1629    2.6361 H   0  0  0  0  0  0  0  0  0  0  0  0
   -2.3653    3.0209   -2.7385 C   0  0  0  0  0  0  0  0  0  0  0  0
   -3.4440    3.1517   -2.9496 H   0  0  0  0  0  0  0  0  0  0  0  0
   -1.8039    3.5058   -3.5606 H   0  0  0  0  0  0  0  0  0  0  0  0
   -2.1466    3.5533   -1.7928 H   0  0  0  0  0  0  0  0  0  0  0  0
   -2.0089   -5.0735    1.1845 C   0  0  0  0  0  0  0  0  0  0  0  0
   -1.9672   -6.1607    1.0296 H   0  0  0  0  0  0  0  0  0  0  0  0
   -2.3099    0.7307   -3.8980 C   0  0  0  0  0  0  0  0  0  0  0  0
   -1.9719   -0.3188   -3.7924 H   0  0  0  0  0  0  0  0  0  0  0  0
   -1.8043    1.1704   -4.7796 H   0  0  0  0  0  0  0  0  0  0  0  0
   -3.3977    0.7240   -4.1048 H   0  0  0  0  0  0  0  0  0  0  0  0
  1  6  1  0  0  0  0
  1 13  1  0  0  0  0
  2  7  1  0  0  0  0
  2 19  1  0  0  0  0
  3  7  1  0  0  0  0
  4  2  2  0  0  0  0
  5  4  1  0  0  0  0
  6 12  1  0  0  0  0
  7  9  1  0  0  0  0
  7  8  1  0  0  0  0
 10 21  1  0  0  0  0
 10  6  2  0  0  0  0
 11 10  1  0  0  0  0
 12  3  1  0  0  0  0
 12 23  2  0  0  0  0
 13  3  1  0  0  0  0
 14  4  1  0  0  0  0
 14 33  2  0  0  0  0
 15 16  3  0  0  0  0
 16 14  1  0  0  0  0
 17 18  1  0  0  0  0
 17  1  1  0  0  0  0
 19 20  1  0  0  0  0
 21 25  2  0  0  0  0
 22 21  1  0  0  0  0
 23 24  1  0  0  0  0
 25 26  1  0  0  0  0
 25 23  1  0  0  0  0
 27 19  2  0  0  0  0
 27 28  1  0  0  0  0
 29 17  1  0  0  0  0
 29 32  1  0  0  0  0
 30 29  1  0  0  0  0
 31 29  1  0  0  0  0
 33 27  1  0  0  0  0
 34 33  1  0  0  0  0
 35 36  1  0  0  0  0
 35 17  1  0  0  0  0
 37 35  1  0  0  0  0
 38 35  1  0  0  0  0
M  END
