21
 OpenBabel05122313113D

 25 26  0  0  1  0  0  0  0  0999 V2000
   -1.7372   -1.1170   -0.3263 N   0  0  0  0  0  0  0  0  0  0  0  0
   -2.0005   -2.4390   -0.3000 C   0  0  0  0  0  0  0  0  0  0  0  0
   -1.1287   -3.0984   -0.4112 H   0  0  0  0  0  0  0  0  0  0  0  0
   -3.3000   -2.9369   -0.1370 C   0  0  0  0  0  0  0  0  0  0  0  0
   -3.4568   -4.0238   -0.1285 H   0  0  0  0  0  0  0  0  0  0  0  0
   -4.3532   -2.0417    0.0069 C   0  0  0  0  0  0  0  0  0  0  0  0
   -5.3847   -2.4012    0.1397 H   0  0  0  0  0  0  0  0  0  0  0  0
   -5.1517    0.3127    0.1191 C   0  0  0  0  0  0  0  0  0  0  0  0
   -6.1812   -0.0526    0.2501 H   0  0  0  0  0  0  0  0  0  0  0  0
   -4.8743    1.6706    0.0866 C   0  0  0  0  0  0  0  0  0  0  0  0
   -5.6872    2.4038    0.1925 H   0  0  0  0  0  0  0  0  0  0  0  0
   -3.5396    2.1159   -0.0856 C   0  0  0  0  0  0  0  0  0  0  0  0
   -3.3213    3.1937   -0.1160 H   0  0  0  0  0  0  0  0  0  0  0  0
   -2.4824    1.2207   -0.2224 C   0  0  0  0  0  0  0  0  0  0  0  0
   -1.4615    1.6189   -0.3590 H   0  0  0  0  0  0  0  0  0  0  0  0
   -2.7529   -0.1707   -0.1899 C   0  0  1  0  0  3  0  0  0  0  0  0
   -4.1048   -0.6429   -0.0181 C   0  0  0  0  0  0  0  0  0  0  0  0
   -0.3138   -0.6862   -0.4100 C   0  0  0  0  0  0  0  0  0  0  0  0
   -0.2452    0.2137   -1.0501 H   0  0  0  0  0  0  0  0  0  0  0  0
    0.2536   -1.5005   -0.8974 H   0  0  0  0  0  0  0  0  0  0  0  0
    0.2545   -0.3930    0.9597 C   0  0  0  0  0  3  0  0  0  0  0  0
   -0.2186    0.4267    1.5274 H   0  0  0  0  0  0  0  0  0  0  0  0
    1.1143   -1.2941    1.5971 C   0  0  0  0  0  3  0  0  0  0  0  0
    1.3988   -2.2441    1.1163 H   0  0  0  0  0  0  0  0  0  0  0  0
    1.3468   -1.1908    2.6689 H   0  0  0  0  0  0  0  0  0  0  0  0
  1  2  1  0  0  0  0
  1 16  1  0  0  0  0
  2  4  2  0  0  0  0
  3  2  1  0  0  0  0
  4  5  1  0  0  0  0
  4  6  1  0  0  0  0
  6  7  1  0  0  0  0
  8  9  1  0  0  0  0
 10  8  2  0  0  0  0
 10 11  1  0  0  0  0
 12 10  1  0  0  0  0
 13 12  1  0  0  0  0
 14 12  2  0  0  0  0
 15 14  1  0  0  0  0
 16 14  1  6  0  0  0
 16 17  1  0  0  0  0
 17  6  2  0  0  0  0
 17  8  1  0  0  0  0
 18  1  1  0  0  0  0
 18 21  1  0  0  0  0
 19 18  1  0  0  0  0
 20 18  1  0  0  0  0
 21 22  1  0  0  0  0
 21 23  1  0  0  0  0
 23 25  1  0  0  0  0
 24 23  1  0  0  0  0
M  END
