3
 OpenBabel05122313113D

 34 36  0  0  0  0  0  0  0  0999 V2000
   -3.1032   -0.8104   -0.0908 N   0  0  0  0  0  0  0  0  0  0  0  0
   -2.2271    1.1237    0.2787 N   0  0  0  0  0  0  0  0  0  0  0  0
   -1.8814   -0.1646   -0.0492 C   0  0  0  0  0  2  0  0  0  0  0  0
   -3.5951    1.2984    0.4473 C   0  0  0  0  0  0  0  0  0  0  0  0
   -4.1809    0.0654    0.2155 C   0  0  0  0  0  0  0  0  0  0  0  0
   -5.5077   -0.4572    0.2194 C   0  0  0  0  0  0  0  0  0  0  0  0
   -5.7085   -1.7881   -0.0766 C   0  0  0  0  0  0  0  0  0  0  0  0
   -4.5932   -2.6409   -0.3898 C   0  0  0  0  0  0  0  0  0  0  0  0
   -3.3166   -2.1439   -0.3941 C   0  0  0  0  0  0  0  0  0  0  0  0
   -1.2591    2.1802    0.4041 C   0  0  0  0  0  0  0  0  0  0  0  0
   -1.0458    3.0354   -0.6978 C   0  0  0  0  0  0  0  0  0  0  0  0
   -0.0570    4.0266   -0.5693 C   0  0  0  0  0  0  0  0  0  0  0  0
    0.6981    4.1772    0.6084 C   0  0  0  0  0  0  0  0  0  0  0  0
    0.4200    3.3268    1.6951 C   0  0  0  0  0  0  0  0  0  0  0  0
   -0.5586    2.3204    1.6208 C   0  0  0  0  0  0  0  0  0  0  0  0
   -1.8503    2.8854   -1.9628 C   0  0  0  0  0  0  0  0  0  0  0  0
    1.8157    5.1845    0.6842 C   0  0  0  0  0  0  0  0  0  0  0  0
   -0.8532    1.4158    2.7861 C   0  0  0  0  0  0  0  0  0  0  0  0
   -4.0314    2.2631    0.7177 H   0  0  0  0  0  0  0  0  0  0  0  0
   -6.3433    0.2155    0.4579 H   0  0  0  0  0  0  0  0  0  0  0  0
   -6.7258   -2.2054   -0.0781 H   0  0  0  0  0  0  0  0  0  0  0  0
   -4.7523   -3.7000   -0.6326 H   0  0  0  0  0  0  0  0  0  0  0  0
   -2.4013   -2.7063   -0.6276 H   0  0  0  0  0  0  0  0  0  0  0  0
    0.1390    4.6916   -1.4255 H   0  0  0  0  0  0  0  0  0  0  0  0
    0.9902    3.4399    2.6308 H   0  0  0  0  0  0  0  0  0  0  0  0
   -2.9034    3.2051   -1.8141 H   0  0  0  0  0  0  0  0  0  0  0  0
   -1.8811    1.8296   -2.2977 H   0  0  0  0  0  0  0  0  0  0  0  0
   -1.4240    3.4977   -2.7794 H   0  0  0  0  0  0  0  0  0  0  0  0
    1.9809    5.5396    1.7203 H   0  0  0  0  0  0  0  0  0  0  0  0
    1.6231    6.0638    0.0387 H   0  0  0  0  0  0  0  0  0  0  0  0
    2.7664    4.7236    0.3383 H   0  0  0  0  0  0  0  0  0  0  0  0
   -0.6433    0.3604    2.5197 H   0  0  0  0  0  0  0  0  0  0  0  0
   -1.9228    1.4666    3.0781 H   0  0  0  0  0  0  0  0  0  0  0  0
   -0.2378    1.6823    3.6650 H   0  0  0  0  0  0  0  0  0  0  0  0
  1  3  1  0  0  0  0
  1  5  1  0  0  0  0
  2 10  1  0  0  0  0
  2  4  1  0  0  0  0
  3  2  1  0  0  0  0
  4 19  1  0  0  0  0
  5  6  1  0  0  0  0
  5  4  2  0  0  0  0
  6 20  1  0  0  0  0
  7  6  2  0  0  0  0
  8  7  1  0  0  0  0
  9  8  2  0  0  0  0
  9  1  1  0  0  0  0
 10 15  1  0  0  0  0
 11 12  1  0  0  0  0
 11 10  2  0  0  0  0
 12 13  2  0  0  0  0
 13 17  1  0  0  0  0
 13 14  1  0  0  0  0
 14 25  1  0  0  0  0
 15 14  2  0  0  0  0
 15 18  1  0  0  0  0
 16 26  1  0  0  0  0
 16 11  1  0  0  0  0
 17 29  1  0  0  0  0
 18 33  1  0  0  0  0
 18 34  1  0  0  0  0
 21  7  1  0  0  0  0
 22  8  1  0  0  0  0
 23  9  1  0  0  0  0
 24 12  1  0  0  0  0
 27 16  1  0  0  0  0
 28 16  1  0  0  0  0
 30 17  1  0  0  0  0
 31 17  1  0  0  0  0
 32 18  1  0  0  0  0
M  END
