3
 OpenBabel05122313113D

 23 24  0  0  0  0  0  0  0  0999 V2000
   -1.7015    4.7296   -0.5830 N   0  0  0  0  0  0  0  0  0  0  0  0
    0.6529    2.5792   -0.3006 C   0  0  0  0  0  3  0  0  0  0  0  0
   -0.6705    2.5770   -0.2917 C   0  0  0  0  0  3  0  0  0  0  0  0
   -1.8613    3.3917   -0.3866 C   0  0  0  0  0  0  0  0  0  0  0  0
   -3.1474    2.8048   -0.2655 C   0  0  0  0  0  0  0  0  0  0  0  0
   -3.2262    1.7215   -0.1013 H   0  0  0  0  0  0  0  0  0  0  0  0
   -4.2802    3.6178   -0.3458 C   0  0  0  0  0  0  0  0  0  0  0  0
   -5.2855    3.1791   -0.2476 H   0  0  0  0  0  0  0  0  0  0  0  0
   -4.1106    4.9970   -0.5502 C   0  0  0  0  0  0  0  0  0  0  0  0
   -4.9708    5.6792   -0.6213 H   0  0  0  0  0  0  0  0  0  0  0  0
   -2.7984    5.4908   -0.6614 C   0  0  0  0  0  0  0  0  0  0  0  0
   -2.6288    6.5714   -0.8226 H   0  0  0  0  0  0  0  0  0  0  0  0
    3.1324    2.8191   -0.3915 C   0  0  0  0  0  0  0  0  0  0  0  0
    3.2213    1.7314   -0.2544 H   0  0  0  0  0  0  0  0  0  0  0  0
    1.8386    3.3928   -0.4341 C   0  0  0  0  0  0  0  0  0  0  0  0
    1.7149    4.7968   -0.6108 C   0  0  0  0  0  0  0  0  0  0  0  0
    0.6988    5.2234   -0.6471 H   0  0  0  0  0  0  0  0  0  0  0  0
    2.8601    5.5916   -0.7342 C   0  0  0  0  0  0  0  0  0  0  0  0
    2.7563    6.6795   -0.8709 H   0  0  0  0  0  0  0  0  0  0  0  0
    4.1411    5.0112   -0.6847 C   0  0  0  0  0  0  0  0  0  0  0  0
    5.0378    5.6428   -0.7814 H   0  0  0  0  0  0  0  0  0  0  0  0
    4.2726    3.6221   -0.5136 C   0  0  0  0  0  0  0  0  0  0  0  0
    5.2722    3.1620   -0.4737 H   0  0  0  0  0  0  0  0  0  0  0  0
  1  4  1  0  0  0  0
  2  3  2  0  0  0  0
  4  3  1  0  0  0  0
  4  5  2  0  0  0  0
  5  6  1  0  0  0  0
  7  5  1  0  0  0  0
  7  8  1  0  0  0  0
  9  7  2  0  0  0  0
 10  9  1  0  0  0  0
 11  1  2  0  0  0  0
 11  9  1  0  0  0  0
 12 11  1  0  0  0  0
 13 14  1  0  0  0  0
 15 13  1  0  0  0  0
 15  2  1  0  0  0  0
 16 15  2  0  0  0  0
 17 16  1  0  0  0  0
 18 20  2  0  0  0  0
 18 16  1  0  0  0  0
 19 18  1  0  0  0  0
 20 22  1  0  0  0  0
 21 20  1  0  0  0  0
 22 23  1  0  0  0  0
 22 13  2  0  0  0  0
M  END
