9
 OpenBabel05122313113D

 39 40  0  0  1  0  0  0  0  0999 V2000
   -1.2051    0.6551    0.5613 C   0  0  2  0  0  3  0  0  0  0  0  0
   -0.7187   -0.4015    1.4121 C   0  0  2  0  0  3  0  0  0  0  0  0
   -1.1691   -1.4057    2.4395 C   0  0  0  0  0  0  0  0  0  0  0  0
   -1.5082   -0.8592    3.3568 H   0  0  0  0  0  0  0  0  0  0  0  0
   -1.9860   -2.0814    2.1209 H   0  0  0  0  0  0  0  0  0  0  0  0
    1.1690   -1.4057    2.4396 C   0  0  0  0  0  0  0  0  0  0  0  0
    1.9860   -2.0814    2.1210 H   0  0  0  0  0  0  0  0  0  0  0  0
    1.5080   -0.8591    3.3569 H   0  0  0  0  0  0  0  0  0  0  0  0
    0.7186   -0.4015    1.4121 C   0  0  2  0  0  3  0  0  0  0  0  0
    1.2050    0.6552    0.5614 C   0  0  1  0  0  3  0  0  0  0  0  0
   -0.0000    1.5381    0.2736 C   0  0  0  0  0  0  0  0  0  0  0  0
   -3.1285    1.6140   -1.6229 C   0  0  0  0  0  0  0  0  0  0  0  0
   -2.3208    2.3125   -1.9219 H   0  0  0  0  0  0  0  0  0  0  0  0
   -4.1038    2.0879   -1.8562 H   0  0  0  0  0  0  0  0  0  0  0  0
   -3.0374    0.6924   -2.2325 H   0  0  0  0  0  0  0  0  0  0  0  0
   -3.2518    2.7997    1.2380 C   0  0  0  0  0  0  0  0  0  0  0  0
   -2.4768    3.5473    0.9736 H   0  0  0  0  0  0  0  0  0  0  0  0
   -3.1785    2.5941    2.3255 H   0  0  0  0  0  0  0  0  0  0  0  0
   -4.2506    3.2391    1.0373 H   0  0  0  0  0  0  0  0  0  0  0  0
   -4.1770   -0.1322    0.7406 C   0  0  0  0  0  0  0  0  0  0  0  0
   -5.2230    0.1864    0.5512 H   0  0  0  0  0  0  0  0  0  0  0  0
   -4.0913   -0.3562    1.8241 H   0  0  0  0  0  0  0  0  0  0  0  0
   -4.0079   -1.0724    0.1777 H   0  0  0  0  0  0  0  0  0  0  0  0
    3.1287    1.6133   -1.6230 C   0  0  0  0  0  0  0  0  0  0  0  0
    2.3212    2.3118   -1.9224 H   0  0  0  0  0  0  0  0  0  0  0  0
    3.0376    0.6915   -2.2323 H   0  0  0  0  0  0  0  0  0  0  0  0
    4.1041    2.0869   -1.8564 H   0  0  0  0  0  0  0  0  0  0  0  0
    3.2515    2.8002    1.2375 C   0  0  0  0  0  0  0  0  0  0  0  0
    3.1784    2.5951    2.3250 H   0  0  0  0  0  0  0  0  0  0  0  0
    2.4763    3.5475    0.9728 H   0  0  0  0  0  0  0  0  0  0  0  0
    4.2501    3.2398    1.0364 H   0  0  0  0  0  0  0  0  0  0  0  0
    4.1769   -0.1319    0.7413 C   0  0  0  0  0  0  0  0  0  0  0  0
    5.2230    0.1867    0.5520 H   0  0  0  0  0  0  0  0  0  0  0  0
    4.0080   -1.0722    0.1787 H   0  0  0  0  0  0  0  0  0  0  0  0
    4.0911   -0.3555    1.8248 H   0  0  0  0  0  0  0  0  0  0  0  0
   -0.0000   -2.1902    2.6988 O   0  0  0  0  0  0  0  0  0  0  0  0
   -0.0001    2.6704   -0.2028 O   0  0  0  0  0  0  0  0  0  0  0  0
   -2.9741    1.2338    0.2179 Si  0  0  0  0  0  0  0  0  0  0  0  0
    2.9740    1.2338    0.2179 Si  0  0  0  0  0  0  0  0  0  0  0  0
  1 38  1  1  0  0  0
  1  2  1  0  0  0  0
  2  9  1  0  0  0  0
  2  3  1  1  0  0  0
  3 36  1  0  0  0  0
  3  4  1  0  0  0  0
  5  3  1  0  0  0  0
  6 36  1  0  0  0  0
  6  8  1  0  0  0  0
  7  6  1  0  0  0  0
  9  6  1  1  0  0  0
 10 39  1  1  0  0  0
 10  9  1  0  0  0  0
 11  1  1  0  0  0  0
 11 10  1  0  0  0  0
 12 38  1  0  0  0  0
 13 12  1  0  0  0  0
 14 12  1  0  0  0  0
 15 12  1  0  0  0  0
 16 18  1  0  0  0  0
 17 16  1  0  0  0  0
 19 16  1  0  0  0  0
 20 22  1  0  0  0  0
 21 20  1  0  0  0  0
 23 20  1  0  0  0  0
 24 39  1  0  0  0  0
 25 24  1  0  0  0  0
 26 24  1  0  0  0  0
 27 24  1  0  0  0  0
 28 29  1  0  0  0  0
 30 28  1  0  0  0  0
 31 28  1  0  0  0  0
 32 35  1  0  0  0  0
 33 32  1  0  0  0  0
 34 32  1  0  0  0  0
 37 11  2  0  0  0  0
 38 20  1  0  0  0  0
 38 16  1  0  0  0  0
 39 32  1  0  0  0  0
 39 28  1  0  0  0  0
M  END
