3
 OpenBabel05122313113D

 13 13  0  0  0  0  0  0  0  0999 V2000
    0.0019    0.7603   -4.0007 S   0  0  0  0  0  0  0  0  0  0  0  0
    0.0001    2.4400   -1.7641 N   0  0  0  0  0  0  0  0  0  0  0  0
   -0.0001    1.7865    0.5752 C   0  0  0  0  0  3  0  0  0  0  0  0
   -0.0001    2.7918   -0.4312 C   0  0  0  0  0  0  0  0  0  0  0  0
   -0.0002    4.1639   -0.0983 C   0  0  0  0  0  0  0  0  0  0  0  0
   -0.0002    4.9040   -0.9109 H   0  0  0  0  0  0  0  0  0  0  0  0
   -0.0003    4.5569    1.2441 C   0  0  0  0  0  0  0  0  0  0  0  0
   -0.0004    5.6268    1.5013 H   0  0  0  0  0  0  0  0  0  0  0  0
   -0.0002    3.5819    2.2553 C   0  0  0  0  0  0  0  0  0  0  0  0
   -0.0003    3.8821    3.3147 H   0  0  0  0  0  0  0  0  0  0  0  0
   -0.0001    2.2164    1.9165 C   0  0  0  0  0  0  0  0  0  0  0  0
   -0.0001    1.4626    2.7207 H   0  0  0  0  0  0  0  0  0  0  0  0
    0.0005    1.6732   -2.6906 C   0  0  0  0  0  0  0  0  0  0  0  0
  1 13  2  0  0  0  0
  2  4  1  0  0  0  0
  3 11  1  0  0  0  0
  4  5  1  0  0  0  0
  4  3  2  0  0  0  0
  5  7  2  0  0  0  0
  6  5  1  0  0  0  0
  7  8  1  0  0  0  0
  7  9  1  0  0  0  0
  9 10  1  0  0  0  0
 11  9  2  0  0  0  0
 11 12  1  0  0  0  0
 13  2  2  0  0  0  0
M  END
