13
 OpenBabel05122313113D

 34 35  0  0  0  0  0  0  0  0999 V2000
    3.9959   -0.9814   -1.2537 O   0  0  0  0  0  0  0  0  0  0  0  0
   -0.5479    3.7414    0.2472 N   0  0  0  0  0  0  0  0  0  0  0  0
    0.6885    2.2910   -0.7655 N   0  0  0  0  0  0  0  0  0  0  0  0
    2.3430    0.6644   -1.0438 N   0  0  0  0  0  0  0  0  0  0  0  0
   -1.6814    4.4000    0.8809 C   0  0  0  0  0  0  0  0  0  0  0  0
   -1.8798    5.3762    0.3973 H   0  0  0  0  0  0  0  0  0  0  0  0
   -1.4812    4.5604    1.9583 H   0  0  0  0  0  0  0  0  0  0  0  0
   -2.5677    3.7500    0.7687 H   0  0  0  0  0  0  0  0  0  0  0  0
    0.7359    4.2743    0.2003 C   0  0  0  0  0  0  0  0  0  0  0  0
    0.9786    5.2596    0.6099 H   0  0  0  0  0  0  0  0  0  0  0  0
    1.5241    3.3503   -0.4329 C   0  0  0  0  0  0  0  0  0  0  0  0
    2.5872    3.3490   -0.6865 H   0  0  0  0  0  0  0  0  0  0  0  0
   -0.5954    2.5111   -0.3338 C   0  0  0  0  0  2  0  0  0  0  0  0
    1.1335    1.0914   -1.4186 C   0  0  0  0  0  0  0  0  0  0  0  0
    0.3204    0.4629   -2.3672 C   0  0  0  0  0  0  0  0  0  0  0  0
   -0.6342    0.9026   -2.6836 H   0  0  0  0  0  0  0  0  0  0  0  0
    0.8146   -0.7324   -2.9272 C   0  0  0  0  0  0  0  0  0  0  0  0
    0.2218   -1.2725   -3.6799 H   0  0  0  0  0  0  0  0  0  0  0  0
    2.0581   -1.2160   -2.5375 C   0  0  0  0  0  0  0  0  0  0  0  0
    2.4877   -2.1399   -2.9467 H   0  0  0  0  0  0  0  0  0  0  0  0
    2.8088   -0.4697   -1.5873 C   0  0  0  0  0  0  0  0  0  0  0  0
    4.9826   -0.3217   -0.3681 C   0  0  0  0  0  0  0  0  0  0  0  0
    4.4070   -0.1575    1.0407 C   0  0  0  0  0  0  0  0  0  0  0  0
    3.5900    0.5853    1.0580 H   0  0  0  0  0  0  0  0  0  0  0  0
    5.2106    0.1749    1.7274 H   0  0  0  0  0  0  0  0  0  0  0  0
    4.0083   -1.1203    1.4145 H   0  0  0  0  0  0  0  0  0  0  0  0
    5.4204    1.0094   -0.9851 C   0  0  0  0  0  0  0  0  0  0  0  0
    5.7883    0.8577   -2.0189 H   0  0  0  0  0  0  0  0  0  0  0  0
    6.2472    1.4391   -0.3861 H   0  0  0  0  0  0  0  0  0  0  0  0
    4.5884    1.7369   -1.0037 H   0  0  0  0  0  0  0  0  0  0  0  0
    6.1373   -1.3252   -0.3679 C   0  0  0  0  0  0  0  0  0  0  0  0
    6.5137   -1.4876   -1.3965 H   0  0  0  0  0  0  0  0  0  0  0  0
    5.8059   -2.2995    0.0414 H   0  0  0  0  0  0  0  0  0  0  0  0
    6.9698   -0.9478    0.2564 H   0  0  0  0  0  0  0  0  0  0  0  0
  1 22  1  0  0  0  0
  2  5  1  0  0  0  0
  3 11  1  0  0  0  0
  3 13  1  0  0  0  0
  5  7  1  0  0  0  0
  6  5  1  0  0  0  0
  8  5  1  0  0  0  0
  9  2  1  0  0  0  0
  9 10  1  0  0  0  0
 11  9  2  0  0  0  0
 12 11  1  0  0  0  0
 13  2  1  0  0  0  0
 14  4  1  0  0  0  0
 14  3  1  0  0  0  0
 15 14  2  0  0  0  0
 16 15  1  0  0  0  0
 17 19  2  0  0  0  0
 17 15  1  0  0  0  0
 18 17  1  0  0  0  0
 19 21  1  0  0  0  0
 20 19  1  0  0  0  0
 21  1  1  0  0  0  0
 21  4  2  0  0  0  0
 22 31  1  0  0  0  0
 22 23  1  0  0  0  0
 23 24  1  0  0  0  0
 23 26  1  0  0  0  0
 23 25  1  0  0  0  0
 27 29  1  0  0  0  0
 27 22  1  0  0  0  0
 28 27  1  0  0  0  0
 30 27  1  0  0  0  0
 31 33  1  0  0  0  0
 31 34  1  0  0  0  0
 32 31  1  0  0  0  0
M  END
