17
 OpenBabel05122313113D

 34 33  0  0  1  0  0  0  0  0999 V2000
   -1.1350   -2.1106    0.8252 S   0  0  0  0  0  1  0  0  0  0  0  0
   -0.8737    0.5357   -1.0955 S   0  0  0  0  0  0  0  0  0  0  0  0
   -3.9475   -1.4684    2.3548 O   0  0  0  0  0  0  0  0  0  0  0  0
   -4.5988   -1.7894    0.1945 O   0  0  0  0  0  0  0  0  0  0  0  0
   -4.5073    1.0575    0.4530 O   0  0  0  0  0  0  0  0  0  0  0  0
   -3.1561    2.2269   -0.9549 O   0  0  0  0  0  0  0  0  0  0  0  0
    3.4494    2.2015    0.1392 O   0  0  0  0  0  0  0  0  0  0  0  0
    2.2833    2.0824    2.0824 O   0  0  0  0  0  0  0  0  0  0  0  0
   -0.7883    3.7164   -1.5120 O   0  0  0  0  0  0  0  0  0  0  0  0
    0.6917    4.0316    0.1885 O   0  0  0  0  0  0  0  0  0  0  0  0
   -2.4124   -0.9885    0.5522 C   0  0  2  0  0  3  0  0  0  0  0  0
   -2.3187    0.2318   -0.0908 C   0  0  2  0  0  3  0  0  0  0  0  0
   -3.7373   -1.4168    1.1624 C   0  0  0  0  0  0  0  0  0  0  0  0
   -5.9318   -2.0565    0.6481 C   0  0  0  0  0  0  0  0  0  0  0  0
   -3.4511    1.1761   -0.1547 C   0  0  0  0  0  0  0  0  0  0  0  0
   -4.1332    3.2623   -1.0456 C   0  0  0  0  0  0  0  0  0  0  0  0
    1.2586    1.2141    0.1734 C   0  0  0  0  0  3  0  0  0  0  0  0
    0.1757    1.8264   -0.3699 C   0  0  0  0  0  0  0  0  0  0  0  0
    2.4353    1.9018    0.7572 C   0  0  0  0  0  0  0  0  0  0  0  0
    3.3947    2.6822    2.7594 C   0  0  0  0  0  0  0  0  0  0  0  0
   -0.0639    3.2642   -0.6436 C   0  0  0  0  0  0  0  0  0  0  0  0
    0.6404    5.4384   -0.0641 C   0  0  0  0  0  0  0  0  0  0  0  0
   -6.4814   -2.4507   -0.2251 H   0  0  0  0  0  0  0  0  0  0  0  0
   -6.3951   -1.1137    1.0031 H   0  0  0  0  0  0  0  0  0  0  0  0
   -5.9316   -2.7918    1.4772 H   0  0  0  0  0  0  0  0  0  0  0  0
   -5.0110    2.9254   -1.6351 H   0  0  0  0  0  0  0  0  0  0  0  0
   -3.6266    4.1027   -1.5522 H   0  0  0  0  0  0  0  0  0  0  0  0
   -4.4864    3.5605   -0.0378 H   0  0  0  0  0  0  0  0  0  0  0  0
    3.5736    3.7091    2.3816 H   0  0  0  0  0  0  0  0  0  0  0  0
    4.3173    2.0866    2.6087 H   0  0  0  0  0  0  0  0  0  0  0  0
    3.1208    2.7051    3.8285 H   0  0  0  0  0  0  0  0  0  0  0  0
   -0.3978    5.8172    0.0244 H   0  0  0  0  0  0  0  0  0  0  0  0
    1.0097    5.6717   -1.0835 H   0  0  0  0  0  0  0  0  0  0  0  0
    1.2887    5.9095    0.6959 H   0  0  0  0  0  0  0  0  0  0  0  0
  2 18  1  0  0  0  0
  4 14  1  0  0  0  0
  4 13  1  0  0  0  0
  6 15  1  0  0  0  0
  7 19  2  0  0  0  0
  8 20  1  0  0  0  0
  9 21  2  0  0  0  0
 11  1  1  1  0  0  0
 11 13  1  0  0  0  0
 12  2  1  6  0  0  0
 12 11  1  0  0  0  0
 13  3  2  0  0  0  0
 14 24  1  0  0  0  0
 14 25  1  0  0  0  0
 15 12  1  0  0  0  0
 15  5  2  0  0  0  0
 16  6  1  0  0  0  0
 16 28  1  0  0  0  0
 17 19  1  0  0  0  0
 18 17  2  0  0  0  0
 19  8  1  0  0  0  0
 20 31  1  0  0  0  0
 21 18  1  0  0  0  0
 21 10  1  0  0  0  0
 22 32  1  0  0  0  0
 22 10  1  0  0  0  0
 22 34  1  0  0  0  0
 23 14  1  0  0  0  0
 26 16  1  0  0  0  0
 27 16  1  0  0  0  0
 29 20  1  0  0  0  0
 30 20  1  0  0  0  0
 33 22  1  0  0  0  0
M  END
