1
 OpenBabel05122313113D

 33 34  0  0  0  0  0  0  0  0999 V2000
    0.7002    0.6103   -0.0171 C   0  0  0  0  0  2  0  0  0  0  0  0
    1.9057    0.7191    0.6295 N   0  0  0  0  0  0  0  0  0  0  0  0
    0.4575    1.8564   -0.5357 N   0  0  0  0  0  0  0  0  0  0  0  0
    1.4974    4.3888   -0.6336 Cl  0  0  0  0  0  0  0  0  0  0  0  0
    2.4022    2.0175    0.5209 C   0  0  0  0  0  0  0  0  0  0  0  0
    3.8823    2.5230    1.2080 Cl  0  0  0  0  0  0  0  0  0  0  0  0
    1.4792    2.7401   -0.1988 C   0  0  0  0  0  0  0  0  0  0  0  0
   -0.6942    2.1610   -1.3716 C   0  0  0  0  0  0  0  0  0  0  0  0
   -0.7861    1.3457   -2.1160 H   0  0  0  0  0  0  0  0  0  0  0  0
   -0.4684    3.1074   -1.9043 H   0  0  0  0  0  0  0  0  0  0  0  0
    2.6780   -0.4358    1.0874 C   0  0  0  0  0  0  0  0  0  0  0  0
    1.9346   -1.1965    1.3931 H   0  0  0  0  0  0  0  0  0  0  0  0
    3.2622   -0.1295    1.9788 H   0  0  0  0  0  0  0  0  0  0  0  0
    3.5781   -0.9997   -0.0140 C   0  0  0  0  0  0  0  0  0  0  0  0
    2.9446   -1.1970   -0.9065 H   0  0  0  0  0  0  0  0  0  0  0  0
    4.3277   -0.2325   -0.3077 H   0  0  0  0  0  0  0  0  0  0  0  0
   -1.9704    2.3210   -0.5696 C   0  0  0  0  0  0  0  0  0  0  0  0
   -1.8747    3.0104    0.5799 N   0  0  0  0  0  0  0  0  0  0  0  0
   -2.9887    3.1782    1.3086 C   0  0  0  0  0  0  0  0  0  0  0  0
   -2.8758    3.7421    2.2518 H   0  0  0  0  0  0  0  0  0  0  0  0
   -4.2456    2.6787    0.9295 C   0  0  0  0  0  0  0  0  0  0  0  0
   -5.1267    2.8432    1.5672 H   0  0  0  0  0  0  0  0  0  0  0  0
   -4.3392    1.9648   -0.2744 C   0  0  0  0  0  0  0  0  0  0  0  0
   -5.3007    1.5445   -0.6067 H   0  0  0  0  0  0  0  0  0  0  0  0
   -3.1801    1.7771   -1.0383 C   0  0  0  0  0  0  0  0  0  0  0  0
   -3.1995    1.2020   -1.9758 H   0  0  0  0  0  0  0  0  0  0  0  0
    4.2849   -2.2854    0.4211 C   0  0  0  0  0  0  0  0  0  0  0  0
    4.8908   -2.0904    1.3346 H   0  0  0  0  0  0  0  0  0  0  0  0
    3.5170   -3.0334    0.7204 H   0  0  0  0  0  0  0  0  0  0  0  0
    5.1738   -2.8736   -0.6750 C   0  0  0  0  0  0  0  0  0  0  0  0
    4.5820   -3.1069   -1.5840 H   0  0  0  0  0  0  0  0  0  0  0  0
    5.6681   -3.8089   -0.3438 H   0  0  0  0  0  0  0  0  0  0  0  0
    5.9702   -2.1604   -0.9733 H   0  0  0  0  0  0  0  0  0  0  0  0
  1  2  1  0  0  0  0
  2 11  1  0  0  0  0
  3  7  1  0  0  0  0
  3  1  1  0  0  0  0
  4  7  1  0  0  0  0
  5  2  1  0  0  0  0
  5  6  1  0  0  0  0
  7  5  2  0  0  0  0
  8 17  1  0  0  0  0
  8  3  1  0  0  0  0
  9  8  1  0  0  0  0
 10  8  1  0  0  0  0
 11 12  1  0  0  0  0
 11 13  1  0  0  0  0
 14 27  1  0  0  0  0
 14 11  1  0  0  0  0
 15 14  1  0  0  0  0
 16 14  1  0  0  0  0
 17 18  1  0  0  0  0
 18 19  2  0  0  0  0
 19 20  1  0  0  0  0
 21 19  1  0  0  0  0
 21 22  1  0  0  0  0
 23 21  2  0  0  0  0
 24 23  1  0  0  0  0
 25 17  2  0  0  0  0
 25 23  1  0  0  0  0
 26 25  1  0  0  0  0
 27 29  1  0  0  0  0
 27 28  1  0  0  0  0
 30 32  1  0  0  0  0
 30 27  1  0  0  0  0
 31 30  1  0  0  0  0
 33 30  1  0  0  0  0
M  END
