4
 OpenBabel05122313113D

 18 18  0  0  1  0  0  0  0  0999 V2000
   -2.4206   -0.2691   -0.0000 S   0  0  0  0  0  0  0  0  0  0  0  0
   -2.4424   -0.9817   -1.2978 O   0  0  0  0  0  0  0  0  0  0  0  0
   -2.4431   -0.9805    1.2984 O   0  0  0  0  0  0  0  0  0  0  0  0
   -0.9749    0.8117   -0.0001 C   0  0  2  0  0  3  0  0  0  0  0  0
   -0.3549    1.1440   -1.2410 C   0  0  0  0  0  3  0  0  0  0  0  0
    0.8630    1.8774   -1.2426 C   0  0  0  0  0  0  0  0  0  0  0  0
    1.4813    2.2010   -0.0001 C   0  0  0  0  0  0  0  0  0  0  0  0
    0.8627    1.8779    1.2425 C   0  0  0  0  0  0  0  0  0  0  0  0
   -0.3553    1.1447    1.2409 C   0  0  0  0  0  0  0  0  0  0  0  0
   -3.8124    0.8903   -0.0010 C   0  0  0  0  0  0  0  0  0  0  0  0
   -0.8141    0.7910   -2.1756 H   0  0  0  0  0  0  0  0  0  0  0  0
    1.3693    2.1053   -2.1898 H   0  0  0  0  0  0  0  0  0  0  0  0
    2.4660    2.6895   -0.0001 H   0  0  0  0  0  0  0  0  0  0  0  0
    1.3688    2.1062    2.1897 H   0  0  0  0  0  0  0  0  0  0  0  0
   -0.8147    0.7922    2.1755 H   0  0  0  0  0  0  0  0  0  0  0  0
   -4.7179    0.2544   -0.0009 H   0  0  0  0  0  0  0  0  0  0  0  0
   -3.7701    1.5081    0.9144 H   0  0  0  0  0  0  0  0  0  0  0  0
   -3.7696    1.5073   -0.9168 H   0  0  0  0  0  0  0  0  0  0  0  0
  1  3  2  0  0  0  0
  2  1  2  0  0  0  0
  4  1  1  1  0  0  0
  4  9  1  0  0  0  0
  5  4  1  0  0  0  0
  6  5  1  0  0  0  0
  6  7  2  0  0  0  0
  7 13  1  0  0  0  0
  7  8  1  0  0  0  0
  8 14  1  0  0  0  0
  9  8  2  0  0  0  0
  9 15  1  0  0  0  0
 10 16  1  0  0  0  0
 10  1  1  0  0  0  0
 10 17  1  0  0  0  0
 11  5  1  0  0  0  0
 12  6  1  0  0  0  0
 18 10  1  0  0  0  0
M  END
