9
 OpenBabel05122313113D

 41 43  0  0  1  0  0  0  0  0999 V2000
   -0.3049    3.1512   -1.9374 O   0  0  0  0  0  0  0  0  0  0  0  0
   -0.2918    0.9812    1.7917 C   0  0  0  0  0  0  0  0  0  0  0  0
   -1.6257    0.7247    1.4528 N   0  0  0  0  0  0  0  0  0  0  0  0
    0.6580    2.0891   -0.2038 N   0  0  0  0  0  0  0  0  0  0  0  0
   -3.3561   -0.1186   -0.0545 C   0  0  0  0  0  0  0  0  0  0  0  0
   -2.1425    0.7032    0.1640 C   0  0  0  0  0  0  0  0  0  0  0  0
   -3.4420   -1.4121    0.5124 C   0  0  0  0  0  0  0  0  0  0  0  0
   -1.5887    1.3852   -0.8998 C   0  0  0  0  0  0  0  0  0  0  0  0
    0.8058    1.0173    0.7967 C   0  0  0  0  0  3  0  0  0  0  0  0
   -4.5549   -2.2210    0.2507 C   0  0  0  0  0  0  0  0  0  0  0  0
   -1.5485    0.7795    3.6990 C   0  0  0  0  0  0  0  0  0  0  0  0
   -2.3930    0.6046    2.6274 C   0  0  0  0  0  0  0  0  0  0  0  0
   -0.4183    2.2183   -0.9672 C   0  0  2  0  0  3  0  0  0  0  0  0
   -5.5239   -0.4655   -1.1234 C   0  0  0  0  0  0  0  0  0  0  0  0
    1.8200    2.9711   -0.4252 C   0  0  0  0  0  0  0  0  0  0  0  0
   -4.4094    0.3445   -0.8735 C   0  0  0  0  0  0  0  0  0  0  0  0
   -0.2286    1.0146    3.1775 C   0  0  0  0  0  0  0  0  0  0  0  0
   -1.4159    3.4604   -2.7742 C   0  0  0  0  0  0  0  0  0  0  0  0
   -5.5977   -1.7519   -0.5644 C   0  0  0  0  0  0  0  0  0  0  0  0
    1.6814    4.3275    0.2751 C   0  0  0  0  0  0  0  0  0  0  0  0
    1.5386    4.2462    1.7950 C   0  0  0  0  0  0  0  0  0  0  0  0
   -2.6193   -1.7897    1.1359 H   0  0  0  0  0  0  0  0  0  0  0  0
   -2.1001    1.2324   -1.8586 H   0  0  0  0  0  0  0  0  0  0  0  0
    1.7100    1.2908    1.3626 H   0  0  0  0  0  0  0  0  0  0  0  0
   -4.6024   -3.2318    0.6822 H   0  0  0  0  0  0  0  0  0  0  0  0
   -1.8405    0.7433    4.7543 H   0  0  0  0  0  0  0  0  0  0  0  0
   -3.4750    0.4607    2.5690 H   0  0  0  0  0  0  0  0  0  0  0  0
   -6.3441   -0.0883   -1.7523 H   0  0  0  0  0  0  0  0  0  0  0  0
    2.6981    2.4138   -0.0464 H   0  0  0  0  0  0  0  0  0  0  0  0
    1.9593    3.1045   -1.5141 H   0  0  0  0  0  0  0  0  0  0  0  0
   -4.3616    1.3610   -1.2924 H   0  0  0  0  0  0  0  0  0  0  0  0
    0.6935    1.1465    3.7552 H   0  0  0  0  0  0  0  0  0  0  0  0
   -1.1240    4.3665   -3.3353 H   0  0  0  0  0  0  0  0  0  0  0  0
   -2.3281    3.6683   -2.1772 H   0  0  0  0  0  0  0  0  0  0  0  0
   -1.6220    2.6421   -3.4955 H   0  0  0  0  0  0  0  0  0  0  0  0
   -6.4719   -2.3899   -0.7638 H   0  0  0  0  0  0  0  0  0  0  0  0
    2.5813    4.9209    0.0049 H   0  0  0  0  0  0  0  0  0  0  0  0
    0.8175    4.8673   -0.1671 H   0  0  0  0  0  0  0  0  0  0  0  0
    1.4616    5.2582    2.2398 H   0  0  0  0  0  0  0  0  0  0  0  0
    2.4134    3.7440    2.2581 H   0  0  0  0  0  0  0  0  0  0  0  0
    0.6341    3.6781    2.0945 H   0  0  0  0  0  0  0  0  0  0  0  0
  2 17  2  0  0  0  0
  3  2  1  0  0  0  0
  3 12  1  0  0  0  0
  4  9  1  0  0  0  0
  5  6  1  0  0  0  0
  5  7  1  0  0  0  0
  6  3  1  0  0  0  0
  7 22  1  0  0  0  0
  8  6  2  0  0  0  0
  9 24  1  0  0  0  0
  9  2  1  0  0  0  0
 10  7  2  0  0  0  0
 10 25  1  0  0  0  0
 11 26  1  0  0  0  0
 12 11  2  0  0  0  0
 13  1  1  6  0  0  0
 13  8  1  0  0  0  0
 13  4  1  0  0  0  0
 14 16  1  0  0  0  0
 14 19  2  0  0  0  0
 15  4  1  0  0  0  0
 15 29  1  0  0  0  0
 15 20  1  0  0  0  0
 16  5  2  0  0  0  0
 17 11  1  0  0  0  0
 17 32  1  0  0  0  0
 18 34  1  0  0  0  0
 18  1  1  0  0  0  0
 19 10  1  0  0  0  0
 20 21  1  0  0  0  0
 21 41  1  0  0  0  0
 21 39  1  0  0  0  0
 21 40  1  0  0  0  0
 23  8  1  0  0  0  0
 27 12  1  0  0  0  0
 28 14  1  0  0  0  0
 30 15  1  0  0  0  0
 31 16  1  0  0  0  0
 33 18  1  0  0  0  0
 35 18  1  0  0  0  0
 36 19  1  0  0  0  0
 37 20  1  0  0  0  0
 38 20  1  0  0  0  0
M  END
