5
 OpenBabel05122313113D

 37 37  0  0  1  0  0  0  0  0999 V2000
   -0.8055   -1.4854   -0.8512 C   0  0  2  0  0  3  0  0  0  0  0  0
    0.2419   -2.3248   -0.2509 C   0  0  0  0  0  0  0  0  0  0  0  0
    0.3775   -1.9396    1.1377 C   0  0  0  0  0  0  0  0  0  0  0  0
   -0.5875   -0.8741    1.4284 C   0  0  1  0  0  3  0  0  0  0  0  0
   -1.3064   -0.6035    0.1876 C   0  0  1  0  0  3  0  0  0  0  0  0
   -1.2641   -1.5740   -2.2720 C   0  0  0  0  0  0  0  0  0  0  0  0
   -1.8854   -0.7010   -2.5476 H   0  0  0  0  0  0  0  0  0  0  0  0
   -1.8665   -2.4923   -2.4399 H   0  0  0  0  0  0  0  0  0  0  0  0
   -0.3922   -1.5937   -2.9554 H   0  0  0  0  0  0  0  0  0  0  0  0
    1.0142   -3.3694   -0.9906 C   0  0  0  0  0  0  0  0  0  0  0  0
    1.4700   -2.9290   -1.9008 H   0  0  0  0  0  0  0  0  0  0  0  0
    0.3503   -4.2069   -1.2915 H   0  0  0  0  0  0  0  0  0  0  0  0
    1.8337   -3.7818   -0.3728 H   0  0  0  0  0  0  0  0  0  0  0  0
    1.3538   -2.4894    2.1283 C   0  0  0  0  0  0  0  0  0  0  0  0
    1.9203   -1.6686    2.6115 H   0  0  0  0  0  0  0  0  0  0  0  0
    2.0895   -3.1561    1.6419 H   0  0  0  0  0  0  0  0  0  0  0  0
    0.8296   -3.0659    2.9190 H   0  0  0  0  0  0  0  0  0  0  0  0
   -0.8481   -0.2683    2.7710 C   0  0  0  0  0  0  0  0  0  0  0  0
    0.0843   -0.1931    3.3633 H   0  0  0  0  0  0  0  0  0  0  0  0
   -1.5699   -0.8798    3.3560 H   0  0  0  0  0  0  0  0  0  0  0  0
   -1.2703    0.7508    2.6776 H   0  0  0  0  0  0  0  0  0  0  0  0
   -2.3826    0.4229    0.0107 C   0  0  0  0  0  0  0  0  0  0  0  0
   -2.3110    0.8521   -1.0100 H   0  0  0  0  0  0  0  0  0  0  0  0
   -2.1981    1.2708    0.7023 H   0  0  0  0  0  0  0  0  0  0  0  0
   -3.7875   -0.1552    0.2470 C   0  0  0  0  0  0  0  0  0  0  0  0
   -3.9552   -1.0059   -0.4501 H   0  0  0  0  0  0  0  0  0  0  0  0
   -3.8393   -0.5905    1.2696 H   0  0  0  0  0  0  0  0  0  0  0  0
   -4.9004    0.8802    0.0717 C   0  0  0  0  0  0  0  0  0  0  0  0
   -4.7237    1.7311    0.7683 H   0  0  0  0  0  0  0  0  0  0  0  0
   -4.8373    1.3164   -0.9510 H   0  0  0  0  0  0  0  0  0  0  0  0
   -6.3076    0.3205    0.2997 C   0  0  0  0  0  0  0  0  0  0  0  0
   -6.3642   -0.1162    1.3219 H   0  0  0  0  0  0  0  0  0  0  0  0
   -6.4776   -0.5303   -0.3972 H   0  0  0  0  0  0  0  0  0  0  0  0
   -7.4130    1.3618    0.1216 C   0  0  0  0  0  0  0  0  0  0  0  0
   -8.4186    0.9278    0.2923 H   0  0  0  0  0  0  0  0  0  0  0  0
   -7.4027    1.7891   -0.9030 H   0  0  0  0  0  0  0  0  0  0  0  0
   -7.2887    2.2070    0.8307 H   0  0  0  0  0  0  0  0  0  0  0  0
  1  6  1  1  0  0  0
  1  2  1  0  0  0  0
  1  5  1  0  0  0  0
  2  3  2  0  0  0  0
  3  4  1  0  0  0  0
  3 14  1  0  0  0  0
  4 18  1  1  0  0  0
  5 22  1  6  0  0  0
  5  4  1  0  0  0  0
  7  6  1  0  0  0  0
  8  6  1  0  0  0  0
  9  6  1  0  0  0  0
 10 13  1  0  0  0  0
 10  2  1  0  0  0  0
 11 10  1  0  0  0  0
 12 10  1  0  0  0  0
 14 15  1  0  0  0  0
 14 17  1  0  0  0  0
 16 14  1  0  0  0  0
 18 20  1  0  0  0  0
 18 19  1  0  0  0  0
 21 18  1  0  0  0  0
 22 25  1  0  0  0  0
 22 24  1  0  0  0  0
 23 22  1  0  0  0  0
 25 27  1  0  0  0  0
 26 25  1  0  0  0  0
 28 25  1  0  0  0  0
 28 31  1  0  0  0  0
 28 29  1  0  0  0  0
 30 28  1  0  0  0  0
 31 32  1  0  0  0  0
 33 31  1  0  0  0  0
 34 35  1  0  0  0  0
 34 31  1  0  0  0  0
 34 37  1  0  0  0  0
 36 34  1  0  0  0  0
M  END
