1
 OpenBabel05122313113D

 17 18  0  0  0  0  0  0  0  0999 V2000
    2.0842   -2.1180    0.0799 C   0  0  0  0  0  3  0  0  0  0  0  0
    3.4137   -1.6396    0.0584 C   0  0  0  0  0  0  0  0  0  0  0  0
    3.9308   -0.2633    0.0436 C   0  0  0  0  0  0  0  0  0  0  0  0
    3.1116    0.8593    0.2996 C   0  0  0  0  0  0  0  0  0  0  0  0
    2.0481    0.7074    0.5441 H   0  0  0  0  0  0  0  0  0  0  0  0
    3.6235    2.1625    0.2620 C   0  0  0  0  0  0  0  0  0  0  0  0
    2.9847    3.0348    0.4638 H   0  0  0  0  0  0  0  0  0  0  0  0
    4.9808    2.3492   -0.0252 C   0  0  0  0  0  0  0  0  0  0  0  0
    5.8276    1.2605   -0.2678 C   0  0  0  0  0  0  0  0  0  0  0  0
    6.8900    1.4431   -0.4851 H   0  0  0  0  0  0  0  0  0  0  0  0
    5.3001   -0.0356   -0.2321 C   0  0  0  0  0  0  0  0  0  0  0  0
    5.9418   -0.9085   -0.4194 H   0  0  0  0  0  0  0  0  0  0  0  0
    5.4821    3.6029   -0.0637 F   0  0  0  0  0  0  0  0  0  0  0  0
    2.2842   -3.4724    0.0702 N   0  0  0  0  0  0  0  0  0  0  0  0
    1.5723   -4.2044    0.0790 H   0  0  0  0  0  0  0  0  0  0  0  0
    3.5917   -3.8263    0.0403 N   0  0  0  0  0  0  0  0  0  0  0  0
    4.2732   -2.7146    0.0304 N   0  0  0  0  0  0  0  0  0  0  0  0
  2  1  2  0  0  0  0
  3  2  1  0  0  0  0
  3  4  1  0  0  0  0
  4  5  1  0  0  0  0
  6  4  2  0  0  0  0
  6  7  1  0  0  0  0
  8  6  1  0  0  0  0
  9 11  1  0  0  0  0
  9  8  2  0  0  0  0
 10  9  1  0  0  0  0
 11  3  2  0  0  0  0
 12 11  1  0  0  0  0
 13  8  1  0  0  0  0
 14 15  1  0  0  0  0
 14  1  1  0  0  0  0
 16 14  1  0  0  0  0
 17 16  2  0  0  0  0
 17  2  1  0  0  0  0
M  END
