36
 OpenBabel05122313113D

 47 50  0  0  0  0  0  0  0  0999 V2000
    1.2050   -0.0711    0.0713 P   0  0  0  0  0  0  0  0  0  0  0  0
    1.8529    0.0574    1.7880 C   0  0  0  0  0  0  0  0  0  0  0  0
    3.0802   -0.5236    2.1622 C   0  0  0  0  0  0  0  0  0  0  0  0
    3.7245   -0.9894    1.4033 H   0  0  0  0  0  0  0  0  0  0  0  0
    3.4882   -0.5036    3.5049 C   0  0  0  0  0  0  0  0  0  0  0  0
    4.4500   -0.9596    3.7852 H   0  0  0  0  0  0  0  0  0  0  0  0
    2.6791    0.0908    4.4852 C   0  0  0  0  0  0  0  0  0  0  0  0
    3.0029    0.1038    5.5369 H   0  0  0  0  0  0  0  0  0  0  0  0
    1.4541    0.6716    4.1164 C   0  0  0  0  0  0  0  0  0  0  0  0
    0.8150    1.1459    4.8768 H   0  0  0  0  0  0  0  0  0  0  0  0
    1.0407    0.6524    2.7776 C   0  0  0  0  0  0  0  0  0  0  0  0
    0.0817    1.1086    2.4892 H   0  0  0  0  0  0  0  0  0  0  0  0
    2.6621   -0.0603   -1.0429 C   0  0  0  0  0  0  0  0  0  0  0  0
    3.4074   -1.2522   -1.2002 C   0  0  0  0  0  0  0  0  0  0  0  0
    3.1071   -2.1531   -0.6415 H   0  0  0  0  0  0  0  0  0  0  0  0
    4.4857   -1.2938   -2.0964 C   0  0  0  0  0  0  0  0  0  0  0  0
    5.0599   -2.2260   -2.2106 H   0  0  0  0  0  0  0  0  0  0  0  0
    4.8219   -0.1609   -2.8549 C   0  0  0  0  0  0  0  0  0  0  0  0
    5.6662   -0.1981   -3.5602 H   0  0  0  0  0  0  0  0  0  0  0  0
    4.0688    1.0157   -2.7193 C   0  0  0  0  0  0  0  0  0  0  0  0
    4.3188    1.9047   -3.3184 H   0  0  0  0  0  0  0  0  0  0  0  0
    2.9931    1.0712   -1.8194 C   0  0  0  0  0  0  0  0  0  0  0  0
    2.4108    1.9978   -1.7244 H   0  0  0  0  0  0  0  0  0  0  0  0
    0.0736    1.3160   -0.2131 C   0  0  0  0  0  0  0  0  0  0  0  0
    0.4186    2.7533   -0.3080 C   0  0  0  0  0  0  0  0  0  0  0  0
    1.5173    3.2875    0.4080 C   0  0  0  0  0  0  0  0  0  0  0  0
    2.1150    2.6245    1.0508 H   0  0  0  0  0  0  0  0  0  0  0  0
    1.8502    4.6453    0.3086 C   0  0  0  0  0  0  0  0  0  0  0  0
    2.7055    5.0380    0.8796 H   0  0  0  0  0  0  0  0  0  0  0  0
    1.1012    5.4998   -0.5160 C   0  0  0  0  0  0  0  0  0  0  0  0
    1.3654    6.5651   -0.5973 H   0  0  0  0  0  0  0  0  0  0  0  0
    0.0181    4.9810   -1.2454 C   0  0  0  0  0  0  0  0  0  0  0  0
   -0.5673    5.6389   -1.9059 H   0  0  0  0  0  0  0  0  0  0  0  0
   -0.3200    3.6259   -1.1438 C   0  0  0  0  0  0  0  0  0  0  0  0
   -1.1633    3.2260   -1.7246 H   0  0  0  0  0  0  0  0  0  0  0  0
   -1.1600    0.6993   -0.2557 C   0  0  0  0  0  3  0  0  0  0  0  0
   -2.4189    1.4723   -0.1882 C   0  0  0  0  0  0  0  0  0  0  0  0
   -2.6150    2.3797    0.8866 C   0  0  0  0  0  0  0  0  0  0  0  0
   -1.7943    2.5350    1.6038 H   0  0  0  0  0  0  0  0  0  0  0  0
   -3.8174    3.0794    1.0432 C   0  0  0  0  0  0  0  0  0  0  0  0
   -3.9371    3.7703    1.8920 H   0  0  0  0  0  0  0  0  0  0  0  0
   -4.8619    2.9104    0.1195 C   0  0  0  0  0  0  0  0  0  0  0  0
   -5.8055    3.4637    0.2376 H   0  0  0  0  0  0  0  0  0  0  0  0
   -4.6870    2.0246   -0.9552 C   0  0  0  0  0  0  0  0  0  0  0  0
   -5.4948    1.8838   -1.6900 H   0  0  0  0  0  0  0  0  0  0  0  0
   -3.4909    1.3064   -1.0996 C   0  0  0  0  0  0  0  0  0  0  0  0
   -3.3841    0.6137   -1.9444 H   0  0  0  0  0  0  0  0  0  0  0  0
  1  2  1  0  0  0  0
  2  3  2  0  0  0  0
  2 11  1  0  0  0  0
  3  5  1  0  0  0  0
  4  3  1  0  0  0  0
  5  6  1  0  0  0  0
  5  7  2  0  0  0  0
  7  8  1  0  0  0  0
  9  7  1  0  0  0  0
  9 10  1  0  0  0  0
 11  9  2  0  0  0  0
 12 11  1  0  0  0  0
 13  1  1  0  0  0  0
 14 13  1  0  0  0  0
 14 15  1  0  0  0  0
 16 14  2  0  0  0  0
 17 16  1  0  0  0  0
 18 20  2  0  0  0  0
 18 16  1  0  0  0  0
 19 18  1  0  0  0  0
 20 22  1  0  0  0  0
 21 20  1  0  0  0  0
 22 23  1  0  0  0  0
 22 13  2  0  0  0  0
 24  1  1  0  0  0  0
 25 24  1  0  0  0  0
 25 26  1  0  0  0  0
 26 27  1  0  0  0  0
 28 26  2  0  0  0  0
 28 29  1  0  0  0  0
 30 28  1  0  0  0  0
 31 30  1  0  0  0  0
 32 34  1  0  0  0  0
 32 30  2  0  0  0  0
 33 32  1  0  0  0  0
 34 25  2  0  0  0  0
 35 34  1  0  0  0  0
 36 24  2  0  0  0  0
 36 37  1  0  0  0  0
 37 38  1  0  0  0  0
 38 40  2  0  0  0  0
 38 39  1  0  0  0  0
 40 41  1  0  0  0  0
 42 43  1  0  0  0  0
 42 40  1  0  0  0  0
 44 42  2  0  0  0  0
 45 44  1  0  0  0  0
 46 44  1  0  0  0  0
 46 37  2  0  0  0  0
 47 46  1  0  0  0  0
M  END
