1
 OpenBabel05122313113D

 27 28  0  0  0  0  0  0  0  0999 V2000
    1.1171   -0.4911    0.1800 C   0  0  0  0  0  2  0  0  0  0  0  0
    2.3521   -0.8404   -0.4358 C   0  0  0  0  0  0  0  0  0  0  0  0
    3.5457   -1.0445    0.2445 C   0  0  0  0  0  0  0  0  0  0  0  0
    4.8141   -1.1612   -0.5005 C   0  0  0  0  0  0  0  0  0  0  0  0
    4.9955   -0.5159   -1.7503 C   0  0  0  0  0  0  0  0  0  0  0  0
    6.1956   -0.6524   -2.4565 C   0  0  0  0  0  0  0  0  0  0  0  0
    7.2407   -1.4340   -1.9350 C   0  0  0  0  0  0  0  0  0  0  0  0
    7.0802   -2.0713   -0.6936 C   0  0  0  0  0  0  0  0  0  0  0  0
    5.8845   -1.9308    0.0205 C   0  0  0  0  0  0  0  0  0  0  0  0
    3.5964   -1.0835    1.7273 C   0  0  0  0  0  0  0  0  0  0  0  0
    4.5063   -0.2540    2.4247 C   0  0  0  0  0  0  0  0  0  0  0  0
    4.5103   -0.2175    3.8249 C   0  0  0  0  0  0  0  0  0  0  0  0
    3.6176   -1.0187    4.5561 C   0  0  0  0  0  0  0  0  0  0  0  0
    2.7269   -1.8654    3.8780 C   0  0  0  0  0  0  0  0  0  0  0  0
    2.7196   -1.9014    2.4772 C   0  0  0  0  0  0  0  0  0  0  0  0
    1.1043   -0.4679    1.2876 H   0  0  0  0  0  0  0  0  0  0  0  0
    2.3658   -0.8761   -1.5361 H   0  0  0  0  0  0  0  0  0  0  0  0
    4.1991    0.1302   -2.1471 H   0  0  0  0  0  0  0  0  0  0  0  0
    6.3221   -0.1333   -3.4186 H   0  0  0  0  0  0  0  0  0  0  0  0
    8.1836   -1.5391   -2.4927 H   0  0  0  0  0  0  0  0  0  0  0  0
    7.8941   -2.6854   -0.2793 H   0  0  0  0  0  0  0  0  0  0  0  0
    5.7590   -2.4380    0.9884 H   0  0  0  0  0  0  0  0  0  0  0  0
    5.1978    0.3827    1.8526 H   0  0  0  0  0  0  0  0  0  0  0  0
    5.2125    0.4470    4.3508 H   0  0  0  0  0  0  0  0  0  0  0  0
    3.6206   -0.9870    5.6561 H   0  0  0  0  0  0  0  0  0  0  0  0
    2.0332   -2.5060    4.4428 H   0  0  0  0  0  0  0  0  0  0  0  0
    2.0349   -2.5806    1.9493 H   0  0  0  0  0  0  0  0  0  0  0  0
  1 16  1  0  0  0  0
  2  1  1  0  0  0  0
  2  3  2  0  0  0  0
  3 10  1  0  0  0  0
  4  9  1  0  0  0  0
  4  3  1  0  0  0  0
  5  4  2  0  0  0  0
  6  7  2  0  0  0  0
  6  5  1  0  0  0  0
  7  8  1  0  0  0  0
  8 21  1  0  0  0  0
  8  9  2  0  0  0  0
  9 22  1  0  0  0  0
 10 11  2  0  0  0  0
 10 15  1  0  0  0  0
 11 12  1  0  0  0  0
 12 24  1  0  0  0  0
 12 13  2  0  0  0  0
 13 25  1  0  0  0  0
 14 26  1  0  0  0  0
 14 13  1  0  0  0  0
 15 14  2  0  0  0  0
 17  2  1  0  0  0  0
 18  5  1  0  0  0  0
 19  6  1  0  0  0  0
 20  7  1  0  0  0  0
 23 11  1  0  0  0  0
 27 15  1  0  0  0  0
M  END
