1
 OpenBabel05122313113D

 19 19  0  0  0  0  0  0  0  0999 V2000
   -1.6029    0.6383   -0.7812 C   0  0  0  0  0  2  0  0  0  0  0  0
   -2.7942    0.8666   -0.1518 N   0  0  0  0  0  0  0  0  0  0  0  0
   -1.8455    0.9471   -2.0899 N   0  0  0  0  0  0  0  0  0  0  0  0
   -3.7684    1.2899   -1.0464 C   0  0  0  0  0  0  0  0  0  0  0  0
   -4.7937    1.5107   -0.7367 H   0  0  0  0  0  0  0  0  0  0  0  0
   -3.1642    1.3465   -2.2756 C   0  0  0  0  0  0  0  0  0  0  0  0
   -3.5556    1.6405   -3.2539 H   0  0  0  0  0  0  0  0  0  0  0  0
   -2.9952    0.6287    1.2765 C   0  0  0  0  0  0  0  0  0  0  0  0
   -1.9694    0.6160    1.7064 H   0  0  0  0  0  0  0  0  0  0  0  0
   -3.5330    1.4936    1.7165 H   0  0  0  0  0  0  0  0  0  0  0  0
   -3.7135   -0.6637    1.5473 C   0  0  0  0  0  0  0  0  0  0  0  0
   -3.2473   -1.5594    1.0967 H   0  0  0  0  0  0  0  0  0  0  0  0
   -4.8313   -0.7644    2.2853 C   0  0  0  0  0  0  0  0  0  0  0  0
   -5.3069    0.1235    2.7364 H   0  0  0  0  0  0  0  0  0  0  0  0
   -5.3084   -1.7382    2.4758 H   0  0  0  0  0  0  0  0  0  0  0  0
   -0.8340    0.8318   -3.1266 C   0  0  0  0  0  0  0  0  0  0  0  0
    0.0494    1.4442   -2.8579 H   0  0  0  0  0  0  0  0  0  0  0  0
   -0.5218   -0.2275   -3.2272 H   0  0  0  0  0  0  0  0  0  0  0  0
   -1.2496    1.1895   -4.0863 H   0  0  0  0  0  0  0  0  0  0  0  0
  1  2  1  0  0  0  0
  2  8  1  0  0  0  0
  3  1  1  0  0  0  0
  4  5  1  0  0  0  0
  4  2  1  0  0  0  0
  6  3  1  0  0  0  0
  6  4  2  0  0  0  0
  7  6  1  0  0  0  0
  8 11  1  0  0  0  0
  8  9  1  0  0  0  0
  8 10  1  0  0  0  0
 11 13  2  0  0  0  0
 12 11  1  0  0  0  0
 13 15  1  0  0  0  0
 13 14  1  0  0  0  0
 16 17  1  0  0  0  0
 16  3  1  0  0  0  0
 18 16  1  0  0  0  0
 19 16  1  0  0  0  0
M  END
