1
 OpenBabel05122313113D

 41 42  0  0  1  0  0  0  0  0999 V2000
   -1.9784   -0.5428    0.3079 C   0  0  1  0  0  3  0  0  0  0  0  0
   -1.2516   -1.5943    0.9794 C   0  0  0  0  0  0  0  0  0  0  0  0
   -0.6707   -2.4448   -0.0132 C   0  0  0  0  0  0  0  0  0  0  0  0
   -1.0348   -1.9354   -1.3041 C   0  0  0  0  0  0  0  0  0  0  0  0
   -1.8491   -0.7797   -1.1090 C   0  0  0  0  0  0  0  0  0  0  0  0
   -1.1753   -1.8535    2.4572 C   0  0  0  0  0  0  0  0  0  0  0  0
   -2.0347   -2.4721    2.7973 H   0  0  0  0  0  0  0  0  0  0  0  0
   -1.1915   -0.9223    3.0503 H   0  0  0  0  0  0  0  0  0  0  0  0
   -0.2545   -2.4066    2.7299 H   0  0  0  0  0  0  0  0  0  0  0  0
    0.0879   -3.7127    0.2555 C   0  0  0  0  0  0  0  0  0  0  0  0
    0.6810   -3.6578    1.1903 H   0  0  0  0  0  0  0  0  0  0  0  0
    0.7832   -3.9706   -0.5681 H   0  0  0  0  0  0  0  0  0  0  0  0
   -0.6030   -4.5767    0.3693 H   0  0  0  0  0  0  0  0  0  0  0  0
   -0.7573   -2.5683   -2.6378 C   0  0  0  0  0  0  0  0  0  0  0  0
   -1.6769   -3.0376   -3.0504 H   0  0  0  0  0  0  0  0  0  0  0  0
    0.0084   -3.3653   -2.5758 H   0  0  0  0  0  0  0  0  0  0  0  0
   -0.4200   -1.8296   -3.3949 H   0  0  0  0  0  0  0  0  0  0  0  0
   -2.5705   -0.0643   -2.2138 C   0  0  0  0  0  0  0  0  0  0  0  0
   -1.9670   -0.0105   -3.1411 H   0  0  0  0  0  0  0  0  0  0  0  0
   -2.8519    0.9688   -1.9381 H   0  0  0  0  0  0  0  0  0  0  0  0
   -3.5173   -0.5921   -2.4603 H   0  0  0  0  0  0  0  0  0  0  0  0
   -3.1064    0.7985    1.0064 Si  0  0  0  0  0  0  0  0  0  0  0  0
   -3.2822    0.7475    2.8927 C   0  0  0  0  0  0  0  0  0  0  0  0
   -3.6122   -0.2471    3.2511 H   0  0  0  0  0  0  0  0  0  0  0  0
   -4.0582    1.4849    3.1852 H   0  0  0  0  0  0  0  0  0  0  0  0
   -2.3431    1.0201    3.4154 H   0  0  0  0  0  0  0  0  0  0  0  0
   -2.5729    2.5550    0.5309 C   0  0  0  0  0  0  0  0  0  0  0  0
   -1.5816    2.7849    0.9681 H   0  0  0  0  0  0  0  0  0  0  0  0
   -3.2948    3.2971    0.9304 H   0  0  0  0  0  0  0  0  0  0  0  0
   -2.5079    2.7004   -0.5653 H   0  0  0  0  0  0  0  0  0  0  0  0
   -4.8294    0.4566    0.2756 C   0  0  0  0  0  0  0  0  0  0  0  0
   -5.7478    1.4944    0.0017 C   0  0  0  0  0  0  0  0  0  0  0  0
   -5.4613    2.5432    0.1831 H   0  0  0  0  0  0  0  0  0  0  0  0
   -7.0270    1.2198   -0.5089 C   0  0  0  0  0  0  0  0  0  0  0  0
   -7.7243    2.0459   -0.7188 H   0  0  0  0  0  0  0  0  0  0  0  0
   -7.4149   -0.1066   -0.7551 C   0  0  0  0  0  0  0  0  0  0  0  0
   -8.4162   -0.3244   -1.1577 H   0  0  0  0  0  0  0  0  0  0  0  0
   -6.5177   -1.1540   -0.4889 C   0  0  0  0  0  0  0  0  0  0  0  0
   -6.8151   -2.1965   -0.6829 H   0  0  0  0  0  0  0  0  0  0  0  0
   -5.2401   -0.8715    0.0185 C   0  0  0  0  0  0  0  0  0  0  0  0
   -4.5366   -1.6995    0.2079 H   0  0  0  0  0  0  0  0  0  0  0  0
  1  2  1  0  0  0  0
  1 22  1  1  0  0  0
  2  6  1  0  0  0  0
  3 10  1  0  0  0  0
  3  2  2  0  0  0  0
  4  5  2  0  0  0  0
  4  3  1  0  0  0  0
  5  1  1  0  0  0  0
  6  9  1  0  0  0  0
  6  7  1  0  0  0  0
  6  8  1  0  0  0  0
 10 13  1  0  0  0  0
 10 11  1  0  0  0  0
 12 10  1  0  0  0  0
 14 16  1  0  0  0  0
 14  4  1  0  0  0  0
 15 14  1  0  0  0  0
 17 14  1  0  0  0  0
 18 20  1  0  0  0  0
 18  5  1  0  0  0  0
 19 18  1  0  0  0  0
 21 18  1  0  0  0  0
 22 23  1  0  0  0  0
 23 25  1  0  0  0  0
 23 24  1  0  0  0  0
 23 26  1  0  0  0  0
 27 29  1  0  0  0  0
 27 28  1  0  0  0  0
 27 22  1  0  0  0  0
 30 27  1  0  0  0  0
 31 22  1  0  0  0  0
 32 33  1  0  0  0  0
 32 31  2  0  0  0  0
 34 32  1  0  0  0  0
 35 34  1  0  0  0  0
 36 34  2  0  0  0  0
 36 38  1  0  0  0  0
 37 36  1  0  0  0  0
 38 40  2  0  0  0  0
 39 38  1  0  0  0  0
 40 41  1  0  0  0  0
 40 31  1  0  0  0  0
M  END
