15
 OpenBabel05122313113D

 25 25  0  0  1  0  0  0  0  0999 V2000
   -1.1632   -1.0723   -1.2478 C   0  0  0  0  0  3  0  0  0  0  0  0
   -0.4146   -0.8357   -2.4551 C   0  0  0  0  0  0  0  0  0  0  0  0
    0.1662   -0.6657   -3.4624 N   0  0  0  0  0  0  0  0  0  0  0  0
   -1.6925   -2.4164   -1.1776 C   0  0  0  0  0  0  0  0  0  0  0  0
   -2.0644   -3.5292   -1.1028 N   0  0  0  0  0  0  0  0  0  0  0  0
   -1.9024    0.0316   -0.5794 C   0  0  1  0  0  3  0  0  0  0  0  0
   -3.3648    0.0063   -0.3351 C   0  0  0  0  0  0  0  0  0  0  0  0
   -4.2236   -0.7374   -1.1750 C   0  0  0  0  0  0  0  0  0  0  0  0
   -5.6057   -0.7332   -0.9719 C   0  0  0  0  0  0  0  0  0  0  0  0
   -6.1803    0.0230    0.0785 C   0  0  0  0  0  0  0  0  0  0  0  0
   -7.5915    0.0247    0.2928 C   0  0  0  0  0  0  0  0  0  0  0  0
   -8.8032    0.0261    0.4790 C   0  0  0  0  0  0  0  0  0  0  0  0
   -5.3201    0.7875    0.9089 C   0  0  0  0  0  0  0  0  0  0  0  0
   -3.9422    0.7801    0.7001 C   0  0  0  0  0  0  0  0  0  0  0  0
   -1.0493    1.0691   -0.0650 C   0  0  0  0  0  2  0  0  0  0  0  0
   -1.0330    2.4404    0.0156 C   0  0  0  0  0  3  0  0  0  0  0  0
   -1.8300    3.2696   -0.8368 C   0  0  0  0  0  0  0  0  0  0  0  0
   -2.4829    3.9329   -1.5544 N   0  0  0  0  0  0  0  0  0  0  0  0
   -0.1429    3.0388    0.9650 C   0  0  0  0  0  0  0  0  0  0  0  0
    0.6040    3.4488    1.7750 N   0  0  0  0  0  0  0  0  0  0  0  0
   -3.8087   -1.3165   -2.0113 H   0  0  0  0  0  0  0  0  0  0  0  0
   -6.2607   -1.3155   -1.6351 H   0  0  0  0  0  0  0  0  0  0  0  0
   -9.8721    0.0286    0.6404 H   0  0  0  0  0  0  0  0  0  0  0  0
   -5.7542    1.3909    1.7187 H   0  0  0  0  0  0  0  0  0  0  0  0
   -3.2933    1.3878    1.3470 H   0  0  0  0  0  0  0  0  0  0  0  0
  1  4  1  0  0  0  0
  1  6  1  0  0  0  0
  2  1  1  0  0  0  0
  3  2  3  0  0  0  0
  4  5  3  0  0  0  0
  6  7  1  0  0  0  0
  6 15  1  1  0  0  0
  7 14  1  0  0  0  0
  8  9  1  0  0  0  0
  8  7  2  0  0  0  0
  9 10  2  0  0  0  0
 10 11  1  0  0  0  0
 10 13  1  0  0  0  0
 11 12  3  0  0  0  0
 12 23  1  0  0  0  0
 13 24  1  0  0  0  0
 14 13  2  0  0  0  0
 14 25  1  0  0  0  0
 15 16  1  0  0  0  0
 16 19  1  0  0  0  0
 17 16  1  0  0  0  0
 18 17  3  0  0  0  0
 19 20  3  0  0  0  0
 21  8  1  0  0  0  0
 22  9  1  0  0  0  0
M  END
