1
 OpenBabel05122313113D

 25 26  0  0  0  0  0  0  0  0999 V2000
   -0.9705    1.7844   -0.0330 C   0  0  0  0  0  2  0  0  0  0  0  0
   -0.6292    2.8987   -0.7451 N   0  0  0  0  0  0  0  0  0  0  0  0
    0.5651    2.9832   -1.5772 C   0  0  0  0  0  0  0  0  0  0  0  0
    0.4932    2.2373   -2.3924 H   0  0  0  0  0  0  0  0  0  0  0  0
    1.4603    2.7527   -0.9684 H   0  0  0  0  0  0  0  0  0  0  0  0
    0.6466    4.0052   -1.9893 H   0  0  0  0  0  0  0  0  0  0  0  0
   -1.5684    3.9061   -0.5742 C   0  0  0  0  0  0  0  0  0  0  0  0
   -1.4743    4.8829   -1.0576 H   0  0  0  0  0  0  0  0  0  0  0  0
   -2.5265    3.4118    0.2732 C   0  0  0  0  0  0  0  0  0  0  0  0
   -3.4404    3.8642    0.6682 H   0  0  0  0  0  0  0  0  0  0  0  0
   -2.1353    2.1208    0.5995 N   0  0  0  0  0  0  0  0  0  0  0  0
   -2.8875    1.2135    1.4663 C   0  0  0  0  0  0  0  0  0  0  0  0
   -3.3085    1.8100    2.2992 H   0  0  0  0  0  0  0  0  0  0  0  0
   -2.1348    0.5241    1.9033 H   0  0  0  0  0  0  0  0  0  0  0  0
   -3.9888    0.4574    0.7516 C   0  0  0  0  0  0  0  0  0  0  0  0
   -3.7352   -0.2179   -0.4611 C   0  0  0  0  0  0  0  0  0  0  0  0
   -2.7354   -0.1733   -0.9238 H   0  0  0  0  0  0  0  0  0  0  0  0
   -4.7463   -0.9528   -1.0935 C   0  0  0  0  0  0  0  0  0  0  0  0
   -4.5589   -1.4795   -2.0402 H   0  0  0  0  0  0  0  0  0  0  0  0
   -6.9908   -1.7204   -1.1110 F   0  0  0  0  0  0  0  0  0  0  0  0
   -6.0163   -1.0140   -0.5056 C   0  0  0  0  0  0  0  0  0  0  0  0
   -6.2977   -0.3534    0.6954 C   0  0  0  0  0  0  0  0  0  0  0  0
   -7.3075   -0.4180    1.1250 H   0  0  0  0  0  0  0  0  0  0  0  0
   -5.2767    0.3835    1.3145 C   0  0  0  0  0  0  0  0  0  0  0  0
   -5.4901    0.9093    2.2590 H   0  0  0  0  0  0  0  0  0  0  0  0
  1 11  1  0  0  0  0
  2  7  1  0  0  0  0
  2  1  1  0  0  0  0
  3  5  1  0  0  0  0
  3  2  1  0  0  0  0
  4  3  1  0  0  0  0
  6  3  1  0  0  0  0
  7  9  2  0  0  0  0
  8  7  1  0  0  0  0
  9 11  1  0  0  0  0
  9 10  1  0  0  0  0
 11 12  1  0  0  0  0
 12 14  1  0  0  0  0
 12 13  1  0  0  0  0
 15 24  1  0  0  0  0
 15 12  1  0  0  0  0
 16 15  2  0  0  0  0
 17 16  1  0  0  0  0
 18 21  2  0  0  0  0
 18 16  1  0  0  0  0
 19 18  1  0  0  0  0
 20 21  1  0  0  0  0
 21 22  1  0  0  0  0
 22 23  1  0  0  0  0
 22 24  2  0  0  0  0
 24 25  1  0  0  0  0
M  END
