2
 OpenBabel05122313113D

 18 17  0  0  0  0  0  0  0  0999 V2000
    2.8162    1.2168    0.3002 O   0  0  0  0  0  0  0  0  0  0  0  0
    0.6090    2.1297    0.3530 C   0  0  0  0  0  3  0  0  0  0  0  0
    1.5857    1.2201    0.8385 C   0  0  0  0  0  3  0  0  0  0  0  0
   -0.6575    2.0519    1.0143 C   0  0  0  0  0  3  0  0  0  0  0  0
    3.6137    0.0611    0.5759 C   0  0  0  0  0  0  0  0  0  0  0  0
   -1.7975    2.9930    0.7415 C   0  0  0  0  0  0  0  0  0  0  0  0
   -1.6836    3.9040    1.3698 H   0  0  0  0  0  0  0  0  0  0  0  0
   -2.7708    2.5331    1.0074 H   0  0  0  0  0  0  0  0  0  0  0  0
   -1.8434    3.2821   -0.3229 H   0  0  0  0  0  0  0  0  0  0  0  0
    4.9429    0.2207   -0.1308 C   0  0  0  0  0  0  0  0  0  0  0  0
    0.8044    2.7671   -0.5223 H   0  0  0  0  0  0  0  0  0  0  0  0
   -0.6014    1.7183    2.0656 H   0  0  0  0  0  0  0  0  0  0  0  0
    1.5164    0.8430    1.8789 H   0  0  0  0  0  0  0  0  0  0  0  0
    3.0689   -0.8297    0.1955 H   0  0  0  0  0  0  0  0  0  0  0  0
    3.7418   -0.0435    1.6810 H   0  0  0  0  0  0  0  0  0  0  0  0
    5.4691    1.1344    0.2098 H   0  0  0  0  0  0  0  0  0  0  0  0
    5.5922   -0.6543    0.0697 H   0  0  0  0  0  0  0  0  0  0  0  0
    4.7765    0.2950   -1.2230 H   0  0  0  0  0  0  0  0  0  0  0  0
  1  5  1  0  0  0  0
  1  3  1  0  0  0  0
  2  3  1  0  0  0  0
  2  4  1  0  0  0  0
  3 13  1  0  0  0  0
  4 12  1  0  0  0  0
  5 15  1  0  0  0  0
  6  8  1  0  0  0  0
  6  4  1  0  0  0  0
  6  7  1  0  0  0  0
  9  6  1  0  0  0  0
 10 17  1  0  0  0  0
 10 16  1  0  0  0  0
 10  5  1  0  0  0  0
 11  2  1  0  0  0  0
 14  5  1  0  0  0  0
 18 10  1  0  0  0  0
M  END
