9
 OpenBabel05122313113D

 28 30  0  0  1  0  0  0  0  0999 V2000
    2.4593    1.3984    1.3727 C   0  0  0  0  0  0  0  0  0  0  0  0
    2.4219    2.4970    1.3242 H   0  0  0  0  0  0  0  0  0  0  0  0
    3.5486    0.7111    0.7889 C   0  0  0  0  0  0  0  0  0  0  0  0
    4.3403    1.2694    0.2711 H   0  0  0  0  0  0  0  0  0  0  0  0
    3.5501   -0.7313    0.7678 C   0  0  0  0  0  0  0  0  0  0  0  0
    4.3428   -1.2721    0.2334 H   0  0  0  0  0  0  0  0  0  0  0  0
    2.4634   -1.4386    1.3319 C   0  0  0  0  0  0  0  0  0  0  0  0
    2.4294   -2.5355    1.2522 H   0  0  0  0  0  0  0  0  0  0  0  0
    1.3313   -0.7439    1.9048 C   0  0  2  0  0  3  0  0  0  0  0  0
    0.1142   -1.4913    2.3832 C   0  0  0  0  0  0  0  0  0  0  0  0
    0.2538   -1.7520    3.4602 H   0  0  0  0  0  0  0  0  0  0  0  0
    0.0490   -2.4623    1.8487 H   0  0  0  0  0  0  0  0  0  0  0  0
   -1.1691   -0.7129    2.1945 C   0  0  0  0  0  0  0  0  0  0  0  0
   -2.4185   -1.5249    1.9706 C   0  0  0  0  0  0  0  0  0  0  0  0
   -2.2254   -2.2733    1.1656 H   0  0  0  0  0  0  0  0  0  0  0  0
   -2.6280   -2.1518    2.8728 H   0  0  0  0  0  0  0  0  0  0  0  0
   -3.6222   -0.7021    1.6155 C   0  0  0  0  0  0  0  0  0  0  0  0
   -4.5276   -1.2458    1.3030 H   0  0  0  0  0  0  0  0  0  0  0  0
   -3.6236    0.6427    1.6358 C   0  0  0  0  0  0  0  0  0  0  0  0
   -4.5301    1.1939    1.3399 H   0  0  0  0  0  0  0  0  0  0  0  0
   -2.4215    1.4568    2.0157 C   0  0  0  0  0  0  0  0  0  0  0  0
   -2.6321    2.0554    2.9367 H   0  0  0  0  0  0  0  0  0  0  0  0
   -2.2300    2.2298    1.2340 H   0  0  0  0  0  0  0  0  0  0  0  0
   -1.1705    0.6408    2.2146 C   0  0  0  0  0  0  0  0  0  0  0  0
    0.1112    1.4157    2.4265 C   0  0  0  0  0  0  0  0  0  0  0  0
    0.0443    2.4020    1.9209 H   0  0  0  0  0  0  0  0  0  0  0  0
    0.2500    1.6448    3.5108 H   0  0  0  0  0  0  0  0  0  0  0  0
    1.3295    0.6850    1.9262 C   0  0  2  0  0  3  0  0  0  0  0  0
  2  1  1  0  0  0  0
  3  1  2  0  0  0  0
  4  3  1  0  0  0  0
  5  3  1  0  0  0  0
  5  7  2  0  0  0  0
  6  5  1  0  0  0  0
  8  7  1  0  0  0  0
  9  7  1  6  0  0  0
  9 28  1  0  0  0  0
  9 10  1  0  0  0  0
 10 11  1  0  0  0  0
 12 10  1  0  0  0  0
 13 24  2  0  0  0  0
 13 10  1  0  0  0  0
 14 13  1  0  0  0  0
 14 16  1  0  0  0  0
 15 14  1  0  0  0  0
 17 19  2  0  0  0  0
 17 14  1  0  0  0  0
 18 17  1  0  0  0  0
 19 21  1  0  0  0  0
 20 19  1  0  0  0  0
 21 24  1  0  0  0  0
 21 22  1  0  0  0  0
 23 21  1  0  0  0  0
 24 25  1  0  0  0  0
 25 27  1  0  0  0  0
 26 25  1  0  0  0  0
 28  1  1  6  0  0  0
 28 25  1  0  0  0  0
M  END
