3
 OpenBabel05122313113D

 24 25  0  0  1  0  0  0  0  0999 V2000
    0.7864   -2.2075   -1.8642 F   0  0  0  0  0  0  0  0  0  0  0  0
   -1.3277   -2.4463   -1.3655 F   0  0  0  0  0  0  0  0  0  0  0  0
   -0.1557   -1.9414   -0.8422 C   0  0  0  0  0  3  0  0  0  0  0  0
    0.2243   -2.8244    0.3908 C   0  0  1  0  0  0  0  0  0  0  0  0
   -0.9419   -2.8499    1.3873 C   0  0  0  0  0  0  0  0  0  0  0  0
   -0.6888   -3.5110    2.2395 H   0  0  0  0  0  0  0  0  0  0  0  0
   -1.8601   -3.2288    0.8993 H   0  0  0  0  0  0  0  0  0  0  0  0
   -1.1577   -1.8436    1.7874 H   0  0  0  0  0  0  0  0  0  0  0  0
    0.6172   -4.2627   -0.0887 C   0  0  0  0  0  0  0  0  0  0  0  0
    0.3250   -4.9779    0.7070 H   0  0  0  0  0  0  0  0  0  0  0  0
    0.0712   -4.5506   -1.0067 H   0  0  0  0  0  0  0  0  0  0  0  0
    2.1534   -4.2738   -0.2538 C   0  0  0  0  0  0  0  0  0  0  0  0
    2.6111   -5.2452    0.0260 H   0  0  0  0  0  0  0  0  0  0  0  0
    2.4451   -4.0767   -1.3080 H   0  0  0  0  0  0  0  0  0  0  0  0
    2.6134   -3.1421    0.6379 C   0  0  0  0  0  0  0  0  0  0  0  0
    1.5231   -2.3320    1.0148 C   0  0  0  0  0  0  0  0  0  0  0  0
    1.7128   -1.2191    1.8485 C   0  0  0  0  0  0  0  0  0  0  0  0
    0.8543   -0.5967    2.1442 H   0  0  0  0  0  0  0  0  0  0  0  0
    3.0113   -0.9079    2.2886 C   0  0  0  0  0  0  0  0  0  0  0  0
    3.1732   -0.0386    2.9443 H   0  0  0  0  0  0  0  0  0  0  0  0
    4.1032   -1.7064    1.9024 C   0  0  0  0  0  0  0  0  0  0  0  0
    5.1150   -1.4575    2.2585 H   0  0  0  0  0  0  0  0  0  0  0  0
    3.9094   -2.8303    1.0791 C   0  0  0  0  0  0  0  0  0  0  0  0
    4.7648   -3.4621    0.7912 H   0  0  0  0  0  0  0  0  0  0  0  0
  1  3  1  0  0  0  0
  2  3  1  0  0  0  0
  4  3  1  6  0  0  0
  4 16  1  0  0  0  0
  4  5  1  0  0  0  0
  5  8  1  0  0  0  0
  5  6  1  0  0  0  0
  7  5  1  0  0  0  0
  9  4  1  0  0  0  0
  9 10  1  0  0  0  0
 11  9  1  0  0  0  0
 12  9  1  0  0  0  0
 12 13  1  0  0  0  0
 12 15  1  0  0  0  0
 14 12  1  0  0  0  0
 15 16  2  0  0  0  0
 15 23  1  0  0  0  0
 16 17  1  0  0  0  0
 17 18  1  0  0  0  0
 17 19  2  0  0  0  0
 19 20  1  0  0  0  0
 21 22  1  0  0  0  0
 21 19  1  0  0  0  0
 23 21  2  0  0  0  0
 24 23  1  0  0  0  0
M  END
