5
 OpenBabel05122313113D

 67 70  0  0  1  0  0  0  0  0999 V2000
    7.2049   -1.3151   -0.1594 O   0  0  0  0  0  0  0  0  0  0  0  0
   -7.4520   -0.3592   -0.4668 O   0  0  0  0  0  0  0  0  0  0  0  0
   -1.1791   -0.9626    0.6326 N   0  0  0  0  0  0  0  0  0  0  0  0
    0.7044   -1.3010   -0.6840 N   0  0  0  0  0  0  0  0  0  0  0  0
   -0.1282   -0.4582   -0.0330 C   0  0  0  0  0  2  0  0  0  0  0  0
   -1.4665   -2.4086    0.5928 C   0  0  1  0  0  0  0  0  0  0  0  0
   -2.1612   -2.6313    1.4252 H   0  0  0  0  0  0  0  0  0  0  0  0
   -2.0267   -2.8033   -0.7879 C   0  0  0  0  0  0  0  0  0  0  0  0
   -2.6334   -3.7265   -0.7063 H   0  0  0  0  0  0  0  0  0  0  0  0
   -2.6912   -2.0107   -1.1776 H   0  0  0  0  0  0  0  0  0  0  0  0
   -0.7600   -3.0245   -1.6626 C   0  0  0  0  0  0  0  0  0  0  0  0
   -0.7253   -4.0481   -2.0862 H   0  0  0  0  0  0  0  0  0  0  0  0
   -0.7087   -2.3207   -2.5161 H   0  0  0  0  0  0  0  0  0  0  0  0
    0.4435   -2.7872   -0.7071 C   0  0  2  0  0  0  0  0  0  0  0  0
    0.7461   -2.7279    1.8869 C   0  0  0  0  0  0  0  0  0  0  0  0
    1.7503   -3.1931    1.8223 H   0  0  0  0  0  0  0  0  0  0  0  0
    0.2873   -3.0673    2.8382 H   0  0  0  0  0  0  0  0  0  0  0  0
    0.8846   -1.6322    1.9544 H   0  0  0  0  0  0  0  0  0  0  0  0
   -0.1256   -3.1692    0.7043 C   0  0  0  0  0  0  0  0  0  0  0  0
   -0.3855   -4.6816    0.8254 C   0  0  0  0  0  0  0  0  0  0  0  0
   -0.8997   -5.1158   -0.0532 H   0  0  0  0  0  0  0  0  0  0  0  0
   -1.0158   -4.8808    1.7159 H   0  0  0  0  0  0  0  0  0  0  0  0
    0.5643   -5.2332    0.9672 H   0  0  0  0  0  0  0  0  0  0  0  0
    1.6876   -3.5796   -1.0945 C   0  0  0  0  0  0  0  0  0  0  0  0
    2.5300   -3.4001   -0.4015 H   0  0  0  0  0  0  0  0  0  0  0  0
    2.0361   -3.3394   -2.1156 H   0  0  0  0  0  0  0  0  0  0  0  0
    1.4394   -4.6576   -1.0809 H   0  0  0  0  0  0  0  0  0  0  0  0
    1.7098   -0.7513   -1.6048 C   0  0  0  0  0  0  0  0  0  0  0  0
    1.4616    0.3253   -1.7163 H   0  0  0  0  0  0  0  0  0  0  0  0
    1.5531   -1.1989   -2.6094 H   0  0  0  0  0  0  0  0  0  0  0  0
    3.1531   -0.9143   -1.1797 C   0  0  0  0  0  0  0  0  0  0  0  0
    4.1296   -1.3228   -2.1113 C   0  0  0  0  0  0  0  0  0  0  0  0
    3.8288   -1.5566   -3.1460 H   0  0  0  0  0  0  0  0  0  0  0  0
    5.4731   -1.4452   -1.7491 C   0  0  0  0  0  0  0  0  0  0  0  0
    6.2370   -1.7676   -2.4714 H   0  0  0  0  0  0  0  0  0  0  0  0
    5.8779   -1.1598   -0.4271 C   0  0  0  0  0  0  0  0  0  0  0  0
    4.9126   -0.7418    0.5125 C   0  0  0  0  0  0  0  0  0  0  0  0
    5.1938   -0.4972    1.5455 H   0  0  0  0  0  0  0  0  0  0  0  0
    3.5671   -0.6187    0.1307 C   0  0  0  0  0  0  0  0  0  0  0  0
    2.8329   -0.2649    0.8723 H   0  0  0  0  0  0  0  0  0  0  0  0
    7.6741   -1.0360    1.1554 C   0  0  0  0  0  0  0  0  0  0  0  0
    7.1486   -1.6858    1.8944 H   0  0  0  0  0  0  0  0  0  0  0  0
    7.4424    0.0206    1.4273 H   0  0  0  0  0  0  0  0  0  0  0  0
    9.1702   -1.2864    1.1810 C   0  0  0  0  0  0  0  0  0  0  0  0
    9.5776   -1.0804    2.1904 H   0  0  0  0  0  0  0  0  0  0  0  0
    9.6893   -0.6320    0.4531 H   0  0  0  0  0  0  0  0  0  0  0  0
    9.3959   -2.3392    0.9198 H   0  0  0  0  0  0  0  0  0  0  0  0
   -2.0800   -0.1256    1.4344 C   0  0  0  0  0  0  0  0  0  0  0  0
   -1.6826    0.9089    1.3738 H   0  0  0  0  0  0  0  0  0  0  0  0
   -2.0014   -0.4434    2.4963 H   0  0  0  0  0  0  0  0  0  0  0  0
   -3.5156   -0.1918    0.9665 C   0  0  0  0  0  0  0  0  0  0  0  0
   -4.5119   -0.7924    1.7510 C   0  0  0  0  0  0  0  0  0  0  0  0
   -4.2466   -1.2093    2.7365 H   0  0  0  0  0  0  0  0  0  0  0  0
   -5.8468   -0.8709    1.3158 C   0  0  0  0  0  0  0  0  0  0  0  0
   -6.5975   -1.3461    1.9609 H   0  0  0  0  0  0  0  0  0  0  0  0
   -6.1968   -0.3384    0.0590 C   0  0  0  0  0  0  0  0  0  0  0  0
   -5.1996    0.2699   -0.7386 C   0  0  0  0  0  0  0  0  0  0  0  0
   -5.4954    0.6853   -1.7130 H   0  0  0  0  0  0  0  0  0  0  0  0
   -3.8809    0.3432   -0.2913 C   0  0  0  0  0  0  0  0  0  0  0  0
   -3.1112    0.8188   -0.9236 H   0  0  0  0  0  0  0  0  0  0  0  0
   -8.5034   -0.9506    0.2893 C   0  0  0  0  0  0  0  0  0  0  0  0
   -8.6035   -0.4327    1.2723 H   0  0  0  0  0  0  0  0  0  0  0  0
   -8.2638   -2.0187    0.5048 H   0  0  0  0  0  0  0  0  0  0  0  0
   -9.7830   -0.8343   -0.5172 C   0  0  0  0  0  0  0  0  0  0  0  0
  -10.6296   -1.2846    0.0376 H   0  0  0  0  0  0  0  0  0  0  0  0
   -9.6825   -1.3571   -1.4888 H   0  0  0  0  0  0  0  0  0  0  0  0
  -10.0222    0.2281   -0.7206 H   0  0  0  0  0  0  0  0  0  0  0  0
  1 41  1  0  0  0  0
  2 56  1  0  0  0  0
  2 61  1  0  0  0  0
  3 48  1  0  0  0  0
  4  5  1  0  0  0  0
  5  3  1  0  0  0  0
  6  3  1  0  0  0  0
  6 19  1  0  0  0  0
  6  7  1  1  0  0  0
  8  9  1  0  0  0  0
  8  6  1  0  0  0  0
 10  8  1  0  0  0  0
 11  8  1  0  0  0  0
 11 14  1  0  0  0  0
 12 11  1  0  0  0  0
 13 11  1  0  0  0  0
 14 24  1  6  0  0  0
 14  4  1  0  0  0  0
 14 19  1  0  0  0  0
 15 18  1  0  0  0  0
 15 17  1  0  0  0  0
 16 15  1  0  0  0  0
 19 20  1  0  0  0  0
 19 15  1  0  0  0  0
 20 23  1  0  0  0  0
 20 22  1  0  0  0  0
 21 20  1  0  0  0  0
 24 27  1  0  0  0  0
 24 25  1  0  0  0  0
 26 24  1  0  0  0  0
 28 31  1  0  0  0  0
 28  4  1  0  0  0  0
 29 28  1  0  0  0  0
 30 28  1  0  0  0  0
 31 39  1  0  0  0  0
 32 34  1  0  0  0  0
 32 31  2  0  0  0  0
 33 32  1  0  0  0  0
 34 36  2  0  0  0  0
 35 34  1  0  0  0  0
 36  1  1  0  0  0  0
 36 37  1  0  0  0  0
 37 38  1  0  0  0  0
 39 37  2  0  0  0  0
 39 40  1  0  0  0  0
 41 44  1  0  0  0  0
 41 43  1  0  0  0  0
 41 42  1  0  0  0  0
 44 45  1  0  0  0  0
 46 44  1  0  0  0  0
 47 44  1  0  0  0  0
 48 50  1  0  0  0  0
 49 48  1  0  0  0  0
 51 48  1  0  0  0  0
 51 52  1  0  0  0  0
 52 53  1  0  0  0  0
 54 52  2  0  0  0  0
 54 55  1  0  0  0  0
 56 54  1  0  0  0  0
 57 59  1  0  0  0  0
 57 56  2  0  0  0  0
 58 57  1  0  0  0  0
 59 51  2  0  0  0  0
 60 59  1  0  0  0  0
 61 63  1  0  0  0  0
 61 62  1  0  0  0  0
 64 65  1  0  0  0  0
 64 61  1  0  0  0  0
 66 64  1  0  0  0  0
 67 64  1  0  0  0  0
M  END
