5
 OpenBabel05122313113D

 61 61  0  0  0  0  0  0  0  0999 V2000
   -3.6891    0.1270   -0.0836 P   0  0  0  0  0  0  0  0  0  0  0  0
   -2.9350    1.1896   -0.8446 O   0  0  0  0  0  0  0  0  0  0  0  0
   -4.8225   -0.6738   -0.9510 O   0  0  0  0  0  0  0  0  0  0  0  0
   -4.4479    0.7726    1.2057 O   0  0  0  0  0  0  0  0  0  0  0  0
    0.4749   -0.5776   -0.1759 C   0  0  0  0  0  2  0  0  0  0  0  0
   -0.2739   -1.7121   -0.2379 N   0  0  0  0  0  0  0  0  0  0  0  0
    0.2906   -3.0136    0.1262 C   0  0  0  0  0  0  0  0  0  0  0  0
   -0.4212   -3.5295    0.8082 H   0  0  0  0  0  0  0  0  0  0  0  0
    1.2170   -2.8105    0.7037 H   0  0  0  0  0  0  0  0  0  0  0  0
    0.6197   -3.9202   -1.0750 C   0  0  0  0  0  0  0  0  0  0  0  0
   -0.3315   -4.1385   -1.6165 H   0  0  0  0  0  0  0  0  0  0  0  0
    1.5838   -3.2416   -2.0536 C   0  0  0  0  0  0  0  0  0  0  0  0
    1.8159   -3.9113   -2.9060 H   0  0  0  0  0  0  0  0  0  0  0  0
    2.5364   -2.9750   -1.5498 H   0  0  0  0  0  0  0  0  0  0  0  0
    1.1614   -2.3024   -2.4632 H   0  0  0  0  0  0  0  0  0  0  0  0
   -0.1104    0.5790   -0.5476 N   0  0  0  0  0  0  0  0  0  0  0  0
   -1.1250    0.6778   -0.7629 H   0  0  0  0  0  0  0  0  0  0  0  0
    1.1774   -5.2513   -0.5571 C   0  0  0  0  0  0  0  0  0  0  0  0
    0.4739   -5.7501    0.1413 H   0  0  0  0  0  0  0  0  0  0  0  0
    2.1336   -5.0911   -0.0161 H   0  0  0  0  0  0  0  0  0  0  0  0
    1.3784   -5.9513   -1.3923 H   0  0  0  0  0  0  0  0  0  0  0  0
   -1.6722   -1.7007   -0.6485 C   0  0  0  0  0  0  0  0  0  0  0  0
   -1.9484   -2.7195   -0.9766 H   0  0  0  0  0  0  0  0  0  0  0  0
   -1.7821   -1.0525   -1.5443 H   0  0  0  0  0  0  0  0  0  0  0  0
   -2.6252   -1.2286    0.4865 C   0  0  0  0  0  0  0  0  0  0  0  0
   -2.0338   -0.8085    1.3257 H   0  0  0  0  0  0  0  0  0  0  0  0
   -3.2409   -2.0542    0.8947 H   0  0  0  0  0  0  0  0  0  0  0  0
   -5.5389    0.0449   -1.9913 C   0  0  0  0  0  0  0  0  0  0  0  0
   -4.8037    0.6241   -2.5887 H   0  0  0  0  0  0  0  0  0  0  0  0
   -5.9689   -0.7482   -2.6343 H   0  0  0  0  0  0  0  0  0  0  0  0
   -6.6174    0.9538   -1.4278 C   0  0  0  0  0  0  0  0  0  0  0  0
   -7.1846    1.4239   -2.2563 H   0  0  0  0  0  0  0  0  0  0  0  0
   -6.1755    1.7651   -0.8156 H   0  0  0  0  0  0  0  0  0  0  0  0
   -7.3330    0.3855   -0.8003 H   0  0  0  0  0  0  0  0  0  0  0  0
   -5.3990    0.0300    2.0046 C   0  0  0  0  0  0  0  0  0  0  0  0
   -5.7631   -0.8518    1.4341 H   0  0  0  0  0  0  0  0  0  0  0  0
   -6.2658    0.7075    2.1473 H   0  0  0  0  0  0  0  0  0  0  0  0
   -4.7959   -0.3668    3.3401 C   0  0  0  0  0  0  0  0  0  0  0  0
   -5.5655   -0.8476    3.9771 H   0  0  0  0  0  0  0  0  0  0  0  0
   -4.4108    0.5238    3.8744 H   0  0  0  0  0  0  0  0  0  0  0  0
   -3.9598   -1.0838    3.2171 H   0  0  0  0  0  0  0  0  0  0  0  0
    0.5984    1.8286   -0.5258 C   0  0  0  0  0  0  0  0  0  0  0  0
    0.3259    2.7377    0.5202 C   0  0  0  0  0  0  0  0  0  0  0  0
    1.0054    3.9675    0.5235 C   0  0  0  0  0  0  0  0  0  0  0  0
    0.8070    4.6807    1.3398 H   0  0  0  0  0  0  0  0  0  0  0  0
    1.9361    4.3038   -0.4764 C   0  0  0  0  0  0  0  0  0  0  0  0
    2.1676    3.3778   -1.5099 C   0  0  0  0  0  0  0  0  0  0  0  0
    2.8859    3.6276   -2.3074 H   0  0  0  0  0  0  0  0  0  0  0  0
    1.5105    2.1365   -1.5609 C   0  0  0  0  0  0  0  0  0  0  0  0
   -0.6538    2.3764    1.6063 C   0  0  0  0  0  0  0  0  0  0  0  0
   -0.6994    3.1651    2.3809 H   0  0  0  0  0  0  0  0  0  0  0  0
   -0.3568    1.4268    2.1007 H   0  0  0  0  0  0  0  0  0  0  0  0
   -1.6761    2.2345    1.1974 H   0  0  0  0  0  0  0  0  0  0  0  0
    2.6928    5.6074   -0.4253 C   0  0  0  0  0  0  0  0  0  0  0  0
    2.1372    6.3825    0.1383 H   0  0  0  0  0  0  0  0  0  0  0  0
    2.9017    5.9992   -1.4407 H   0  0  0  0  0  0  0  0  0  0  0  0
    3.6739    5.4736    0.0794 H   0  0  0  0  0  0  0  0  0  0  0  0
    1.7858    1.1574   -2.6716 C   0  0  0  0  0  0  0  0  0  0  0  0
    2.3981    0.3076   -2.2981 H   0  0  0  0  0  0  0  0  0  0  0  0
    2.3368    1.6389   -3.5013 H   0  0  0  0  0  0  0  0  0  0  0  0
    0.8489    0.7208   -3.0736 H   0  0  0  0  0  0  0  0  0  0  0  0
  1 25  1  0  0  0  0
  1  4  1  0  0  0  0
  2  1  2  0  0  0  0
  3  1  1  0  0  0  0
  4 35  1  0  0  0  0
  6  5  1  0  0  0  0
  6  7  1  0  0  0  0
  7  9  1  0  0  0  0
  7  8  1  0  0  0  0
 10 18  1  0  0  0  0
 10  7  1  0  0  0  0
 11 10  1  0  0  0  0
 12 14  1  0  0  0  0
 12 10  1  0  0  0  0
 13 12  1  0  0  0  0
 15 12  1  0  0  0  0
 16 42  1  0  0  0  0
 16  5  1  0  0  0  0
 17 16  1  0  0  0  0
 18 20  1  0  0  0  0
 18 19  1  0  0  0  0
 21 18  1  0  0  0  0
 22  6  1  0  0  0  0
 22 25  1  0  0  0  0
 23 22  1  0  0  0  0
 24 22  1  0  0  0  0
 25 27  1  0  0  0  0
 25 26  1  0  0  0  0
 28 31  1  0  0  0  0
 28  3  1  0  0  0  0
 29 28  1  0  0  0  0
 30 28  1  0  0  0  0
 31 33  1  0  0  0  0
 31 34  1  0  0  0  0
 32 31  1  0  0  0  0
 35 37  1  0  0  0  0
 35 38  1  0  0  0  0
 36 35  1  0  0  0  0
 38 40  1  0  0  0  0
 38 39  1  0  0  0  0
 41 38  1  0  0  0  0
 42 43  1  0  0  0  0
 43 44  2  0  0  0  0
 43 50  1  0  0  0  0
 44 45  1  0  0  0  0
 46 54  1  0  0  0  0
 46 44  1  0  0  0  0
 47 46  2  0  0  0  0
 48 47  1  0  0  0  0
 49 47  1  0  0  0  0
 49 42  2  0  0  0  0
 50 52  1  0  0  0  0
 50 51  1  0  0  0  0
 53 50  1  0  0  0  0
 54 57  1  0  0  0  0
 54 55  1  0  0  0  0
 56 54  1  0  0  0  0
 58 59  1  0  0  0  0
 58 49  1  0  0  0  0
 60 58  1  0  0  0  0
 61 58  1  0  0  0  0
M  END
