3
 OpenBabel05122313113D

 71 72  0  0  0  0  0  0  0  0999 V2000
   -0.1841   -1.0771    0.5129 N   0  0  0  0  0  0  0  0  0  0  0  0
    0.7007   -1.6120    0.6269 H   0  0  0  0  0  0  0  0  0  0  0  0
   -0.1974    0.2537    0.2984 C   0  0  0  0  0  2  0  0  0  0  0  0
    0.9550    0.9370    0.5325 N   0  0  0  0  0  0  0  0  0  0  0  0
    2.1101    0.3245    1.1664 C   0  0  0  0  0  0  0  0  0  0  0  0
    1.8278   -0.1788    2.1199 H   0  0  0  0  0  0  0  0  0  0  0  0
    2.8528    1.1040    1.4181 H   0  0  0  0  0  0  0  0  0  0  0  0
    3.0159   -0.9610    0.2066 P   0  0  0  0  0  0  0  0  0  0  0  0
    2.3877   -2.3397    0.2367 O   0  0  0  0  0  0  0  0  0  0  0  0
    4.5243   -0.9267    0.8393 O   0  0  0  0  0  0  0  0  0  0  0  0
    3.1478   -0.2535   -1.2441 O   0  0  0  0  0  0  0  0  0  0  0  0
    5.0102   -2.0601    1.6071 C   0  0  0  0  0  0  0  0  0  0  0  0
    6.1120   -1.9446    1.6066 H   0  0  0  0  0  0  0  0  0  0  0  0
    4.7514   -2.9975    1.0731 H   0  0  0  0  0  0  0  0  0  0  0  0
    4.4487   -2.0698    3.0171 C   0  0  0  0  0  0  0  0  0  0  0  0
    4.6564   -1.1134    3.5376 H   0  0  0  0  0  0  0  0  0  0  0  0
    4.9071   -2.8899    3.6057 H   0  0  0  0  0  0  0  0  0  0  0  0
    3.3535   -2.2438    3.0004 H   0  0  0  0  0  0  0  0  0  0  0  0
    3.5382   -1.0370   -2.4056 C   0  0  0  0  0  0  0  0  0  0  0  0
    2.9573   -0.6097   -3.2470 H   0  0  0  0  0  0  0  0  0  0  0  0
    3.2027   -2.0850   -2.2585 H   0  0  0  0  0  0  0  0  0  0  0  0
    5.0328   -0.9440   -2.6492 C   0  0  0  0  0  0  0  0  0  0  0  0
    5.3481    0.1113   -2.7678 H   0  0  0  0  0  0  0  0  0  0  0  0
    5.2998   -1.4930   -3.5746 H   0  0  0  0  0  0  0  0  0  0  0  0
    5.6041   -1.3825   -1.8076 H   0  0  0  0  0  0  0  0  0  0  0  0
    1.0121    2.3957    0.2918 C   0  0  0  0  0  0  0  0  0  0  0  0
    0.0554    2.6123   -0.2327 H   0  0  0  0  0  0  0  0  0  0  0  0
    2.1612    2.8023   -0.6389 C   0  0  0  0  0  0  0  0  0  0  0  0
    2.0957    2.2184   -1.5785 H   0  0  0  0  0  0  0  0  0  0  0  0
    3.1425    2.5457   -0.1789 H   0  0  0  0  0  0  0  0  0  0  0  0
    2.1172    4.3121   -0.9136 C   0  0  0  0  0  0  0  0  0  0  0  0
    2.9687    4.6017   -1.5637 H   0  0  0  0  0  0  0  0  0  0  0  0
    1.1924    4.5490   -1.4847 H   0  0  0  0  0  0  0  0  0  0  0  0
    2.1286    5.1239    0.3880 C   0  0  0  0  0  0  0  0  0  0  0  0
    3.0998    4.9652    0.9101 H   0  0  0  0  0  0  0  0  0  0  0  0
    2.0677    6.2096    0.1665 H   0  0  0  0  0  0  0  0  0  0  0  0
    0.9808    4.7036    1.3148 C   0  0  0  0  0  0  0  0  0  0  0  0
    0.0095    4.9565    0.8355 H   0  0  0  0  0  0  0  0  0  0  0  0
    1.0162    5.2718    2.2673 H   0  0  0  0  0  0  0  0  0  0  0  0
    1.0119    3.1961    1.6016 C   0  0  0  0  0  0  0  0  0  0  0  0
    1.9226    2.9544    2.1969 H   0  0  0  0  0  0  0  0  0  0  0  0
    0.1333    2.8905    2.2073 H   0  0  0  0  0  0  0  0  0  0  0  0
   -1.3244   -1.9023    0.2146 C   0  0  0  0  0  0  0  0  0  0  0  0
   -1.4136   -2.4938   -1.0665 C   0  0  0  0  0  0  0  0  0  0  0  0
   -2.5075   -3.3438   -1.3196 C   0  0  0  0  0  0  0  0  0  0  0  0
   -2.6064   -3.8168   -2.3087 H   0  0  0  0  0  0  0  0  0  0  0  0
   -3.4771   -3.5786   -0.3396 C   0  0  0  0  0  0  0  0  0  0  0  0
   -4.3300   -4.2391   -0.5582 H   0  0  0  0  0  0  0  0  0  0  0  0
   -3.3767   -2.9636    0.9165 C   0  0  0  0  0  0  0  0  0  0  0  0
   -4.1572   -3.1427    1.6692 H   0  0  0  0  0  0  0  0  0  0  0  0
   -2.2984   -2.1158    1.2223 C   0  0  0  0  0  0  0  0  0  0  0  0
   -0.3914   -2.2067   -2.1593 C   0  0  0  0  0  0  0  0  0  0  0  0
    0.3307   -1.4699   -1.7563 H   0  0  0  0  0  0  0  0  0  0  0  0
   -2.1493   -1.4514    2.5858 C   0  0  0  0  0  0  0  0  0  0  0  0
   -1.7379   -0.4367    2.3973 H   0  0  0  0  0  0  0  0  0  0  0  0
    0.4089   -3.4673   -2.5261 C   0  0  0  0  0  0  0  0  0  0  0  0
    0.9633   -3.8503   -1.6466 H   0  0  0  0  0  0  0  0  0  0  0  0
    1.1445   -3.2429   -3.3270 H   0  0  0  0  0  0  0  0  0  0  0  0
   -0.2529   -4.2755   -2.9007 H   0  0  0  0  0  0  0  0  0  0  0  0
   -1.0577   -1.5557   -3.3826 C   0  0  0  0  0  0  0  0  0  0  0  0
   -1.7800   -2.2421   -3.8707 H   0  0  0  0  0  0  0  0  0  0  0  0
   -0.2953   -1.2798   -4.1406 H   0  0  0  0  0  0  0  0  0  0  0  0
   -1.6060   -0.6374   -3.0898 H   0  0  0  0  0  0  0  0  0  0  0  0
   -1.1328   -2.2187    3.4524 C   0  0  0  0  0  0  0  0  0  0  0  0
   -1.4942   -3.2469    3.6618 H   0  0  0  0  0  0  0  0  0  0  0  0
   -0.9748   -1.7071    4.4245 H   0  0  0  0  0  0  0  0  0  0  0  0
   -0.1499   -2.3095    2.9472 H   0  0  0  0  0  0  0  0  0  0  0  0
   -3.4769   -1.2619    3.3271 C   0  0  0  0  0  0  0  0  0  0  0  0
   -4.2151   -0.7244    2.6995 H   0  0  0  0  0  0  0  0  0  0  0  0
   -3.3166   -0.6692    4.2501 H   0  0  0  0  0  0  0  0  0  0  0  0
   -3.9238   -2.2297    3.6365 H   0  0  0  0  0  0  0  0  0  0  0  0
  1  2  1  0  0  0  0
  3  1  1  0  0  0  0
  3  4  1  0  0  0  0
  4  5  1  0  0  0  0
  5  7  1  0  0  0  0
  5  6  1  0  0  0  0
  8  9  2  0  0  0  0
  8 10  1  0  0  0  0
  8  5  1  0  0  0  0
 10 12  1  0  0  0  0
 11  8  1  0  0  0  0
 12 15  1  0  0  0  0
 13 12  1  0  0  0  0
 14 12  1  0  0  0  0
 15 16  1  0  0  0  0
 15 17  1  0  0  0  0
 18 15  1  0  0  0  0
 19 21  1  0  0  0  0
 19 11  1  0  0  0  0
 20 19  1  0  0  0  0
 22 19  1  0  0  0  0
 22 25  1  0  0  0  0
 23 22  1  0  0  0  0
 24 22  1  0  0  0  0
 26  4  1  0  0  0  0
 26 40  1  0  0  0  0
 27 26  1  0  0  0  0
 28 30  1  0  0  0  0
 28 26  1  0  0  0  0
 29 28  1  0  0  0  0
 31 28  1  0  0  0  0
 31 34  1  0  0  0  0
 32 31  1  0  0  0  0
 33 31  1  0  0  0  0
 34 35  1  0  0  0  0
 34 37  1  0  0  0  0
 36 34  1  0  0  0  0
 37 40  1  0  0  0  0
 37 39  1  0  0  0  0
 38 37  1  0  0  0  0
 40 41  1  0  0  0  0
 40 42  1  0  0  0  0
 43  1  1  0  0  0  0
 43 51  1  0  0  0  0
 44 43  2  0  0  0  0
 45 44  1  0  0  0  0
 45 47  2  0  0  0  0
 46 45  1  0  0  0  0
 47 49  1  0  0  0  0
 48 47  1  0  0  0  0
 49 51  2  0  0  0  0
 49 50  1  0  0  0  0
 51 54  1  0  0  0  0
 52 53  1  0  0  0  0
 52 44  1  0  0  0  0
 54 68  1  0  0  0  0
 54 64  1  0  0  0  0
 55 54  1  0  0  0  0
 56 52  1  0  0  0  0
 56 57  1  0  0  0  0
 58 56  1  0  0  0  0
 59 56  1  0  0  0  0
 60 63  1  0  0  0  0
 60 52  1  0  0  0  0
 61 60  1  0  0  0  0
 62 60  1  0  0  0  0
 64 65  1  0  0  0  0
 64 66  1  0  0  0  0
 67 64  1  0  0  0  0
 68 71  1  0  0  0  0
 68 70  1  0  0  0  0
 69 68  1  0  0  0  0
M  END
