3
 OpenBabel05122313113D

 57 57  0  0  0  0  0  0  0  0999 V2000
    0.8414    2.3752   -0.2860 P   0  0  0  0  0  0  0  0  0  0  0  0
    1.2339   -2.2548   -0.1562 P   0  0  0  0  0  0  0  0  0  0  0  0
    0.9503    0.1344    1.5162 C   0  0  0  0  0  3  0  0  0  0  0  0
    0.6349    1.3265    2.2367 C   0  0  0  0  0  0  0  0  0  0  0  0
    0.2449    2.5734    1.4683 C   0  0  0  0  0  0  0  0  0  0  0  0
    0.6230    3.5007    1.9486 H   0  0  0  0  0  0  0  0  0  0  0  0
   -0.8626    2.6810    1.4081 H   0  0  0  0  0  0  0  0  0  0  0  0
   -0.2059    3.5972   -1.2658 C   0  0  0  0  0  0  0  0  0  0  0  0
    0.3141    3.6397   -2.2481 H   0  0  0  0  0  0  0  0  0  0  0  0
   -0.2469    5.0055   -0.6607 C   0  0  0  0  0  0  0  0  0  0  0  0
   -0.8227    5.6885   -1.3203 H   0  0  0  0  0  0  0  0  0  0  0  0
    0.7597    5.4484   -0.5287 H   0  0  0  0  0  0  0  0  0  0  0  0
   -0.7511    5.0060    0.3279 H   0  0  0  0  0  0  0  0  0  0  0  0
   -1.6160    3.0503   -1.5073 C   0  0  0  0  0  0  0  0  0  0  0  0
   -2.1722    2.9070   -0.5571 H   0  0  0  0  0  0  0  0  0  0  0  0
   -1.5821    2.0753   -2.0272 H   0  0  0  0  0  0  0  0  0  0  0  0
   -2.2002    3.7605   -2.1293 H   0  0  0  0  0  0  0  0  0  0  0  0
    2.5276    3.2186   -0.2666 C   0  0  0  0  0  0  0  0  0  0  0  0
    2.3306    4.2776    0.0114 H   0  0  0  0  0  0  0  0  0  0  0  0
    3.1592    3.1675   -1.6620 C   0  0  0  0  0  0  0  0  0  0  0  0
    4.1570    3.6540   -1.6524 H   0  0  0  0  0  0  0  0  0  0  0  0
    2.5435    3.6837   -2.4261 H   0  0  0  0  0  0  0  0  0  0  0  0
    3.2869    2.1152   -1.9878 H   0  0  0  0  0  0  0  0  0  0  0  0
    3.4481    2.6040    0.7928 C   0  0  0  0  0  0  0  0  0  0  0  0
    3.6122    1.5265    0.5893 H   0  0  0  0  0  0  0  0  0  0  0  0
    3.0336    2.6876    1.8163 H   0  0  0  0  0  0  0  0  0  0  0  0
    4.4330    3.1162    0.7787 H   0  0  0  0  0  0  0  0  0  0  0  0
    0.6826    1.3674    3.6466 C   0  0  0  0  0  0  0  0  0  0  0  0
    0.4250    2.3002    4.1748 H   0  0  0  0  0  0  0  0  0  0  0  0
    1.0530    0.2316    4.3782 C   0  0  0  0  0  0  0  0  0  0  0  0
    1.0766    0.2618    5.4786 H   0  0  0  0  0  0  0  0  0  0  0  0
    1.4181   -0.9375    3.6944 C   0  0  0  0  0  0  0  0  0  0  0  0
    1.7463   -1.8232    4.2631 H   0  0  0  0  0  0  0  0  0  0  0  0
    1.3924   -0.9838    2.2867 C   0  0  0  0  0  0  0  0  0  0  0  0
    1.9252   -2.2075    1.5716 C   0  0  0  0  0  0  0  0  0  0  0  0
    1.7483   -3.1507    2.1303 H   0  0  0  0  0  0  0  0  0  0  0  0
    3.0273   -2.1103    1.4600 H   0  0  0  0  0  0  0  0  0  0  0  0
    2.5427   -3.1578   -1.1659 C   0  0  0  0  0  0  0  0  0  0  0  0
    2.7141   -4.1222   -0.6394 H   0  0  0  0  0  0  0  0  0  0  0  0
    3.8652   -2.3863   -1.2153 C   0  0  0  0  0  0  0  0  0  0  0  0
    4.6226   -2.9736   -1.7759 H   0  0  0  0  0  0  0  0  0  0  0  0
    4.2795   -2.1830   -0.2078 H   0  0  0  0  0  0  0  0  0  0  0  0
    3.7295   -1.4117   -1.7232 H   0  0  0  0  0  0  0  0  0  0  0  0
    2.0231   -3.4352   -2.5818 C   0  0  0  0  0  0  0  0  0  0  0  0
    1.8214   -2.4807   -3.1086 H   0  0  0  0  0  0  0  0  0  0  0  0
    1.0848   -4.0254   -2.5870 H   0  0  0  0  0  0  0  0  0  0  0  0
    2.7789   -4.0008   -3.1662 H   0  0  0  0  0  0  0  0  0  0  0  0
   -0.1536   -3.5378   -0.0240 C   0  0  0  0  0  0  0  0  0  0  0  0
   -0.7099   -3.4132   -0.9792 H   0  0  0  0  0  0  0  0  0  0  0  0
   -1.0938   -3.1756    1.1327 C   0  0  0  0  0  0  0  0  0  0  0  0
   -2.0008   -3.8154    1.1038 H   0  0  0  0  0  0  0  0  0  0  0  0
   -1.4165   -2.1216    1.0931 H   0  0  0  0  0  0  0  0  0  0  0  0
   -0.6059   -3.3367    2.1156 H   0  0  0  0  0  0  0  0  0  0  0  0
    0.3160   -4.9915    0.1033 C   0  0  0  0  0  0  0  0  0  0  0  0
    0.9646   -5.1302    0.9942 H   0  0  0  0  0  0  0  0  0  0  0  0
    0.8741   -5.3488   -0.7831 H   0  0  0  0  0  0  0  0  0  0  0  0
   -0.5596   -5.6625    0.2350 H   0  0  0  0  0  0  0  0  0  0  0  0
  1 18  1  0  0  0  0
  1  5  1  0  0  0  0
  2 48  1  0  0  0  0
  2 35  1  0  0  0  0
  3  4  2  0  0  0  0
  3 34  1  0  0  0  0
  4 28  1  0  0  0  0
  5  6  1  0  0  0  0
  5  4  1  0  0  0  0
  7  5  1  0  0  0  0
  8 10  1  0  0  0  0
  8  1  1  0  0  0  0
  9  8  1  0  0  0  0
 10 12  1  0  0  0  0
 10 13  1  0  0  0  0
 11 10  1  0  0  0  0
 14  8  1  0  0  0  0
 14 15  1  0  0  0  0
 16 14  1  0  0  0  0
 17 14  1  0  0  0  0
 18 19  1  0  0  0  0
 18 24  1  0  0  0  0
 20 21  1  0  0  0  0
 20 18  1  0  0  0  0
 22 20  1  0  0  0  0
 23 20  1  0  0  0  0
 24 26  1  0  0  0  0
 25 24  1  0  0  0  0
 27 24  1  0  0  0  0
 28 29  1  0  0  0  0
 28 30  2  0  0  0  0
 30 31  1  0  0  0  0
 32 33  1  0  0  0  0
 32 30  1  0  0  0  0
 34 32  2  0  0  0  0
 35 36  1  0  0  0  0
 35 34  1  0  0  0  0
 37 35  1  0  0  0  0
 38 39  1  0  0  0  0
 38  2  1  0  0  0  0
 40 38  1  0  0  0  0
 40 42  1  0  0  0  0
 41 40  1  0  0  0  0
 43 40  1  0  0  0  0
 44 38  1  0  0  0  0
 45 44  1  0  0  0  0
 46 44  1  0  0  0  0
 47 44  1  0  0  0  0
 48 54  1  0  0  0  0
 48 50  1  0  0  0  0
 49 48  1  0  0  0  0
 50 53  1  0  0  0  0
 51 50  1  0  0  0  0
 52 50  1  0  0  0  0
 54 57  1  0  0  0  0
 54 55  1  0  0  0  0
 56 54  1  0  0  0  0
M  END
