4
 OpenBabel05122313113D

 44 45  0  0  0  0  0  0  0  0999 V2000
    3.9803   -1.3719    0.4096 N   0  0  0  0  0  0  0  0  0  0  0  0
    1.5124    1.0426   -0.3628 N   0  0  0  0  0  0  0  0  0  0  0  0
    1.5668   -1.0179    0.4274 N   0  0  0  0  0  0  0  0  0  0  0  0
    0.7199    0.0094    0.0925 C   0  0  0  0  0  2  0  0  0  0  0  0
    1.0029    2.3321   -0.8305 C   0  0  0  0  0  0  0  0  0  0  0  0
   -0.0141    2.1300   -1.2193 H   0  0  0  0  0  0  0  0  0  0  0  0
    1.6284    2.6367   -1.6953 H   0  0  0  0  0  0  0  0  0  0  0  0
    0.9565    3.4808    0.2116 C   0  0  0  0  0  0  0  0  0  0  0  0
    0.2542    4.6553   -0.4960 C   0  0  0  0  0  0  0  0  0  0  0  0
    0.1956    5.5354    0.1756 H   0  0  0  0  0  0  0  0  0  0  0  0
   -0.7793    4.3824   -0.7923 H   0  0  0  0  0  0  0  0  0  0  0  0
    0.8003    4.9647   -1.4117 H   0  0  0  0  0  0  0  0  0  0  0  0
    0.1457    3.0693    1.4505 C   0  0  0  0  0  0  0  0  0  0  0  0
    0.6485    2.2608    2.0184 H   0  0  0  0  0  0  0  0  0  0  0  0
   -0.8584    2.6899    1.1696 H   0  0  0  0  0  0  0  0  0  0  0  0
    0.0236    3.9340    2.1341 H   0  0  0  0  0  0  0  0  0  0  0  0
    2.3677    3.9159    0.6439 C   0  0  0  0  0  0  0  0  0  0  0  0
    2.3066    4.7647    1.3552 H   0  0  0  0  0  0  0  0  0  0  0  0
    2.9748    4.2521   -0.2228 H   0  0  0  0  0  0  0  0  0  0  0  0
    2.9134    3.0972    1.1546 H   0  0  0  0  0  0  0  0  0  0  0  0
    2.8506    0.6694   -0.3387 C   0  0  0  0  0  0  0  0  0  0  0  0
    2.8903   -0.6468    0.1854 C   0  0  0  0  0  0  0  0  0  0  0  0
    5.1358   -0.7744    0.0667 C   0  0  0  0  0  0  0  0  0  0  0  0
    6.0566   -1.3542    0.2468 H   0  0  0  0  0  0  0  0  0  0  0  0
    5.2177    0.5168   -0.4994 C   0  0  0  0  0  0  0  0  0  0  0  0
    6.2018    0.9274   -0.7674 H   0  0  0  0  0  0  0  0  0  0  0  0
    4.0552    1.2765   -0.7138 C   0  0  0  0  0  0  0  0  0  0  0  0
    4.0967    2.2864   -1.1428 H   0  0  0  0  0  0  0  0  0  0  0  0
    1.1990   -2.3231    0.9767 C   0  0  0  0  0  0  0  0  0  0  0  0
    0.3134   -2.1711    1.6221 H   0  0  0  0  0  0  0  0  0  0  0  0
    2.0554   -2.6266    1.6111 H   0  0  0  0  0  0  0  0  0  0  0  0
    0.9089   -3.4544   -0.0483 C   0  0  0  0  0  0  0  0  0  0  0  0
    0.8021   -4.7479    0.7822 C   0  0  0  0  0  0  0  0  0  0  0  0
   -0.0013   -4.6734    1.5444 H   0  0  0  0  0  0  0  0  0  0  0  0
    1.7532   -4.9740    1.3074 H   0  0  0  0  0  0  0  0  0  0  0  0
    0.5635   -5.6093    0.1265 H   0  0  0  0  0  0  0  0  0  0  0  0
   -0.4152   -3.2149   -0.7913 C   0  0  0  0  0  0  0  0  0  0  0  0
   -0.6423   -4.0797   -1.4490 H   0  0  0  0  0  0  0  0  0  0  0  0
   -0.3852   -2.3062   -1.4245 H   0  0  0  0  0  0  0  0  0  0  0  0
   -1.2587   -3.0891   -0.0808 H   0  0  0  0  0  0  0  0  0  0  0  0
    2.0557   -3.5850   -1.0649 C   0  0  0  0  0  0  0  0  0  0  0  0
    1.8729   -4.4505   -1.7338 H   0  0  0  0  0  0  0  0  0  0  0  0
    3.0334   -3.7252   -0.5634 H   0  0  0  0  0  0  0  0  0  0  0  0
    2.1289   -2.6827   -1.7057 H   0  0  0  0  0  0  0  0  0  0  0  0
  2 21  1  0  0  0  0
  2  4  1  0  0  0  0
  3 29  1  0  0  0  0
  4  3  1  0  0  0  0
  5  2  1  0  0  0  0
  5  8  1  0  0  0  0
  6  5  1  0  0  0  0
  7  5  1  0  0  0  0
  8 17  1  0  0  0  0
  8 13  1  0  0  0  0
  9 10  1  0  0  0  0
  9  8  1  0  0  0  0
 11  9  1  0  0  0  0
 12  9  1  0  0  0  0
 13 14  1  0  0  0  0
 13 16  1  0  0  0  0
 15 13  1  0  0  0  0
 17 20  1  0  0  0  0
 17 18  1  0  0  0  0
 19 17  1  0  0  0  0
 21 22  2  0  0  0  0
 22  1  1  0  0  0  0
 22  3  1  0  0  0  0
 23 24  1  0  0  0  0
 23  1  2  0  0  0  0
 25 23  1  0  0  0  0
 26 25  1  0  0  0  0
 27 25  2  0  0  0  0
 27 21  1  0  0  0  0
 28 27  1  0  0  0  0
 29 31  1  0  0  0  0
 29 30  1  0  0  0  0
 32 33  1  0  0  0  0
 32 29  1  0  0  0  0
 33 35  1  0  0  0  0
 33 34  1  0  0  0  0
 36 33  1  0  0  0  0
 37 40  1  0  0  0  0
 37 32  1  0  0  0  0
 38 37  1  0  0  0  0
 39 37  1  0  0  0  0
 41 43  1  0  0  0  0
 41 32  1  0  0  0  0
 42 41  1  0  0  0  0
 44 41  1  0  0  0  0
M  END
