5
 OpenBabel05122313113D

 36 37  0  0  0  0  0  0  0  0999 V2000
   -1.5571    3.4678   -0.2450 O   0  0  0  0  0  0  0  0  0  0  0  0
    0.5364    2.9492   -0.9728 O   0  0  0  0  0  0  0  0  0  0  0  0
   -1.8980    0.6079   -0.8144 N   0  0  0  0  0  0  0  0  0  0  0  0
   -2.1558   -0.9326    0.7267 N   0  0  0  0  0  0  0  0  0  0  0  0
   -1.2206   -0.2774   -0.0202 C   0  0  0  0  0  2  0  0  0  0  0  0
   -3.2653    0.5572   -0.5480 C   0  0  0  0  0  0  0  0  0  0  0  0
   -4.3532    1.2863   -1.0442 C   0  0  0  0  0  0  0  0  0  0  0  0
   -4.2164    2.0987   -1.7705 H   0  0  0  0  0  0  0  0  0  0  0  0
   -5.6213    0.9588   -0.5424 C   0  0  0  0  0  0  0  0  0  0  0  0
   -6.5002    1.5118   -0.9047 H   0  0  0  0  0  0  0  0  0  0  0  0
   -5.7926   -0.0538    0.4276 C   0  0  0  0  0  0  0  0  0  0  0  0
   -6.8030   -0.2767    0.8008 H   0  0  0  0  0  0  0  0  0  0  0  0
   -4.7013   -0.7750    0.9349 C   0  0  0  0  0  0  0  0  0  0  0  0
   -4.8362   -1.5541    1.6974 H   0  0  0  0  0  0  0  0  0  0  0  0
   -3.4336   -0.4519    0.4307 C   0  0  0  0  0  0  0  0  0  0  0  0
   -1.2376    1.5538   -1.6994 C   0  0  0  0  0  0  0  0  0  0  0  0
   -1.9601    1.8716   -2.4757 H   0  0  0  0  0  0  0  0  0  0  0  0
   -0.3839    1.0415   -2.1819 H   0  0  0  0  0  0  0  0  0  0  0  0
   -0.7945    2.7769   -0.8912 C   0  0  0  0  0  0  0  0  0  0  0  0
    1.0982    3.9700   -0.1129 C   0  0  0  0  0  0  0  0  0  0  0  0
    0.4998    4.8983   -0.2192 H   0  0  0  0  0  0  0  0  0  0  0  0
    0.9888    3.6137    0.9339 H   0  0  0  0  0  0  0  0  0  0  0  0
    2.5479    4.1606   -0.5052 C   0  0  0  0  0  0  0  0  0  0  0  0
    2.6389    4.5007   -1.5559 H   0  0  0  0  0  0  0  0  0  0  0  0
    3.1149    3.2144   -0.3999 H   0  0  0  0  0  0  0  0  0  0  0  0
    3.0181    4.9219    0.1483 H   0  0  0  0  0  0  0  0  0  0  0  0
   -1.8716   -1.9558    1.7320 C   0  0  0  0  0  0  0  0  0  0  0  0
   -2.4401   -1.6824    2.6447 H   0  0  0  0  0  0  0  0  0  0  0  0
   -0.7954   -1.8568    1.9767 H   0  0  0  0  0  0  0  0  0  0  0  0
   -2.2134   -3.3791    1.2781 C   0  0  0  0  0  0  0  0  0  0  0  0
   -3.2917   -3.4329    1.0121 H   0  0  0  0  0  0  0  0  0  0  0  0
   -2.0888   -4.0354    2.1664 H   0  0  0  0  0  0  0  0  0  0  0  0
   -1.3570   -3.8862    0.1198 C   0  0  0  0  0  0  0  0  0  0  0  0
   -0.2797   -3.8785    0.3838 H   0  0  0  0  0  0  0  0  0  0  0  0
   -1.4603   -3.2532   -0.7841 H   0  0  0  0  0  0  0  0  0  0  0  0
   -1.6349   -4.9227   -0.1565 H   0  0  0  0  0  0  0  0  0  0  0  0
  2 19  1  0  0  0  0
  2 20  1  0  0  0  0
  3  6  1  0  0  0  0
  3  5  1  0  0  0  0
  4 27  1  0  0  0  0
  5  4  1  0  0  0  0
  6 15  1  0  0  0  0
  7  6  2  0  0  0  0
  7  9  1  0  0  0  0
  8  7  1  0  0  0  0
  9 11  2  0  0  0  0
 10  9  1  0  0  0  0
 11 12  1  0  0  0  0
 11 13  1  0  0  0  0
 13 14  1  0  0  0  0
 15  4  1  0  0  0  0
 15 13  2  0  0  0  0
 16 19  1  0  0  0  0
 16  3  1  0  0  0  0
 17 16  1  0  0  0  0
 18 16  1  0  0  0  0
 19  1  2  0  0  0  0
 20 22  1  0  0  0  0
 21 20  1  0  0  0  0
 23 25  1  0  0  0  0
 23 20  1  0  0  0  0
 23 26  1  0  0  0  0
 24 23  1  0  0  0  0
 27 29  1  0  0  0  0
 27 28  1  0  0  0  0
 30 27  1  0  0  0  0
 30 32  1  0  0  0  0
 31 30  1  0  0  0  0
 33 34  1  0  0  0  0
 33 30  1  0  0  0  0
 35 33  1  0  0  0  0
 36 33  1  0  0  0  0
M  END
