3
 OpenBabel05122313113D

 59 62  0  0  1  0  0  0  0  0999 V2000
   -0.5798   -1.7274   -0.0940 N   0  0  0  0  0  0  0  0  0  0  0  0
    1.2604   -0.8464   -0.8046 N   0  0  0  0  0  0  0  0  0  0  0  0
    0.4281   -0.8832    0.2852 C   0  0  0  0  0  2  0  0  0  0  0  0
   -0.3907   -2.1966   -1.3876 C   0  0  0  0  0  0  0  0  0  0  0  0
   -1.1037   -2.8625   -1.8818 H   0  0  0  0  0  0  0  0  0  0  0  0
    0.7768   -1.6377   -1.8410 C   0  0  0  0  0  0  0  0  0  0  0  0
    1.2968   -1.7236   -2.7994 H   0  0  0  0  0  0  0  0  0  0  0  0
   -1.7560   -2.0306    0.7535 C   0  0  2  0  0  0  0  0  0  0  0  0
   -1.5705   -1.4363    1.6706 H   0  0  0  0  0  0  0  0  0  0  0  0
   -1.7620   -3.5084    1.1446 C   0  0  0  0  0  0  0  0  0  0  0  0
   -1.8203   -4.1789    0.2643 H   0  0  0  0  0  0  0  0  0  0  0  0
   -2.6263   -3.7265    1.8007 H   0  0  0  0  0  0  0  0  0  0  0  0
   -0.8317   -3.7524    1.6931 H   0  0  0  0  0  0  0  0  0  0  0  0
   -3.0187   -1.5165    0.0688 C   0  0  0  0  0  0  0  0  0  0  0  0
   -3.8403   -2.3778   -0.6525 C   0  0  0  0  0  0  0  0  0  0  0  0
   -3.6206   -3.4554   -0.6721 H   0  0  0  0  0  0  0  0  0  0  0  0
   -4.9657   -1.9014   -1.3749 C   0  0  0  0  0  0  0  0  0  0  0  0
   -5.5920   -2.6129   -1.9337 H   0  0  0  0  0  0  0  0  0  0  0  0
   -5.2666   -0.5503   -1.3789 C   0  0  0  0  0  0  0  0  0  0  0  0
   -6.1314   -0.1698   -1.9447 H   0  0  0  0  0  0  0  0  0  0  0  0
   -4.4687    0.3743   -0.6433 C   0  0  0  0  0  0  0  0  0  0  0  0
   -4.7743    1.7675   -0.6244 C   0  0  0  0  0  0  0  0  0  0  0  0
   -5.6423    2.1205   -1.2033 H   0  0  0  0  0  0  0  0  0  0  0  0
   -4.0064    2.6609    0.1083 C   0  0  0  0  0  0  0  0  0  0  0  0
   -4.2583    3.7323    0.1133 H   0  0  0  0  0  0  0  0  0  0  0  0
   -2.9022    2.1883    0.8638 C   0  0  0  0  0  0  0  0  0  0  0  0
   -2.2849    2.8698    1.4691 H   0  0  0  0  0  0  0  0  0  0  0  0
   -2.5789    0.8399    0.8588 C   0  0  0  0  0  0  0  0  0  0  0  0
   -1.7152    0.5276    1.4671 H   0  0  0  0  0  0  0  0  0  0  0  0
   -3.3308   -0.1094    0.1067 C   0  0  0  0  0  0  0  0  0  0  0  0
    2.3990    0.0313   -0.8849 C   0  0  0  0  0  0  0  0  0  0  0  0
    3.6785   -0.4864   -0.5692 C   0  0  0  0  0  0  0  0  0  0  0  0
    4.7755    0.3861   -0.6821 C   0  0  0  0  0  0  0  0  0  0  0  0
    5.7849    0.0210   -0.4437 H   0  0  0  0  0  0  0  0  0  0  0  0
    4.5971    1.7181   -1.0805 C   0  0  0  0  0  0  0  0  0  0  0  0
    5.4684    2.3855   -1.1620 H   0  0  0  0  0  0  0  0  0  0  0  0
    3.3163    2.2082   -1.3578 C   0  0  0  0  0  0  0  0  0  0  0  0
    3.1869    3.2616   -1.6483 H   0  0  0  0  0  0  0  0  0  0  0  0
    2.1828    1.3774   -1.2636 C   0  0  0  0  0  0  0  0  0  0  0  0
    3.8337   -1.8976   -0.0181 C   0  0  0  0  0  0  0  0  0  0  0  0
    2.9905   -2.5034   -0.4115 H   0  0  0  0  0  0  0  0  0  0  0  0
    3.6943   -1.8582    1.5172 C   0  0  0  0  0  0  0  0  0  0  0  0
    4.5242   -1.2759    1.9681 H   0  0  0  0  0  0  0  0  0  0  0  0
    3.7166   -2.8816    1.9448 H   0  0  0  0  0  0  0  0  0  0  0  0
    2.7432   -1.3722    1.8194 H   0  0  0  0  0  0  0  0  0  0  0  0
    5.1348   -2.5882   -0.4457 C   0  0  0  0  0  0  0  0  0  0  0  0
    5.2584   -2.5861   -1.5474 H   0  0  0  0  0  0  0  0  0  0  0  0
    5.1402   -3.6417   -0.1005 H   0  0  0  0  0  0  0  0  0  0  0  0
    6.0270   -2.1001   -0.0025 H   0  0  0  0  0  0  0  0  0  0  0  0
    0.7945    1.9321   -1.5575 C   0  0  0  0  0  0  0  0  0  0  0  0
    0.0527    1.1471   -1.3086 H   0  0  0  0  0  0  0  0  0  0  0  0
    0.6359    2.2545   -3.0536 C   0  0  0  0  0  0  0  0  0  0  0  0
    1.3446    3.0467   -3.3732 H   0  0  0  0  0  0  0  0  0  0  0  0
   -0.3913    2.6148   -3.2657 H   0  0  0  0  0  0  0  0  0  0  0  0
    0.8236    1.3616   -3.6842 H   0  0  0  0  0  0  0  0  0  0  0  0
    0.4703    3.1459   -0.6704 C   0  0  0  0  0  0  0  0  0  0  0  0
    0.5645    2.8955    0.4066 H   0  0  0  0  0  0  0  0  0  0  0  0
   -0.5717    3.4790   -0.8523 H   0  0  0  0  0  0  0  0  0  0  0  0
    1.1399    4.0037   -0.8882 H   0  0  0  0  0  0  0  0  0  0  0  0
  1  3  1  0  0  0  0
  1  8  1  0  0  0  0
  2  3  1  0  0  0  0
  4  1  1  0  0  0  0
  5  4  1  0  0  0  0
  6  4  2  0  0  0  0
  6  2  1  0  0  0  0
  7  6  1  0  0  0  0
  8 10  1  0  0  0  0
  8  9  1  1  0  0  0
 10 13  1  0  0  0  0
 10 12  1  0  0  0  0
 11 10  1  0  0  0  0
 14 30  1  0  0  0  0
 14  8  1  0  0  0  0
 15 14  2  0  0  0  0
 16 15  1  0  0  0  0
 17 15  1  0  0  0  0
 18 17  1  0  0  0  0
 19 17  2  0  0  0  0
 19 21  1  0  0  0  0
 20 19  1  0  0  0  0
 21 22  2  0  0  0  0
 21 30  1  0  0  0  0
 22 24  1  0  0  0  0
 23 22  1  0  0  0  0
 24 25  1  0  0  0  0
 24 26  2  0  0  0  0
 26 27  1  0  0  0  0
 28 26  1  0  0  0  0
 28 29  1  0  0  0  0
 30 28  2  0  0  0  0
 31  2  1  0  0  0  0
 31 32  1  0  0  0  0
 32 40  1  0  0  0  0
 33 32  2  0  0  0  0
 33 34  1  0  0  0  0
 35 33  1  0  0  0  0
 36 35  1  0  0  0  0
 37 39  1  0  0  0  0
 37 35  2  0  0  0  0
 38 37  1  0  0  0  0
 39 31  2  0  0  0  0
 40 42  1  0  0  0  0
 41 40  1  0  0  0  0
 42 45  1  0  0  0  0
 42 44  1  0  0  0  0
 42 43  1  0  0  0  0
 46 48  1  0  0  0  0
 46 40  1  0  0  0  0
 46 49  1  0  0  0  0
 47 46  1  0  0  0  0
 50 51  1  0  0  0  0
 50 39  1  0  0  0  0
 50 56  1  0  0  0  0
 52 50  1  0  0  0  0
 53 52  1  0  0  0  0
 54 52  1  0  0  0  0
 55 52  1  0  0  0  0
 56 57  1  0  0  0  0
 58 56  1  0  0  0  0
 59 56  1  0  0  0  0
M  END
