3
 OpenBabel05122313113D

  4  3  0  0  0  0  0  0  0  0999 V2000
   -3.3249    0.2571    0.1850 C   0  0  0  0  0  0  0  0  0  0  0  0
   -4.3482   -1.9636   -0.3699 C   0  0  0  0  0  0  0  0  0  0  0  0
   -2.2028    0.8979    0.1149 C   0  0  0  0  0  0  0  0  0  0  0  0
   -3.7984   -0.9242   -0.1234 O   0  0  0  0  0  0  0  0  0  0  0  0
  2  4  1  0  0  0  0
  3  1  1  0  0  0  0
  4  1  1  0  0  0  0
M  END
