1
 OpenBabel05122313113D

 25 24  0  0  0  0  0  0  0  0999 V2000
    0.2384   -2.3922   -0.5159 C   0  0  0  0  0  3  0  0  0  0  0  0
    0.2041   -2.4241   -1.6252 H   0  0  0  0  0  0  0  0  0  0  0  0
    0.6104   -3.3724   -0.1524 H   0  0  0  0  0  0  0  0  0  0  0  0
   -1.1349   -2.0815    0.0468 C   0  0  0  0  0  0  0  0  0  0  0  0
   -1.4603   -1.0778   -0.2964 H   0  0  0  0  0  0  0  0  0  0  0  0
   -1.1017   -2.0292    1.1563 H   0  0  0  0  0  0  0  0  0  0  0  0
   -2.2164   -3.0964   -0.3596 C   0  0  0  0  0  0  0  0  0  0  0  0
   -1.9562   -4.0943    0.0553 H   0  0  0  0  0  0  0  0  0  0  0  0
   -2.2176   -3.2181   -1.4667 H   0  0  0  0  0  0  0  0  0  0  0  0
   -7.1898   -2.4588   -1.0872 C   0  0  0  0  0  0  0  0  0  0  0  0
   -8.0820   -3.0863   -0.8877 H   0  0  0  0  0  0  0  0  0  0  0  0
   -6.4359   -3.1076   -1.5789 H   0  0  0  0  0  0  0  0  0  0  0  0
   -7.4852   -1.6822   -1.8244 H   0  0  0  0  0  0  0  0  0  0  0  0
   -3.6202   -2.6854    0.1133 C   0  0  0  0  0  0  0  0  0  0  0  0
   -4.3050   -3.5577    0.0405 H   0  0  0  0  0  0  0  0  0  0  0  0
   -3.5723   -2.4271    1.1959 H   0  0  0  0  0  0  0  0  0  0  0  0
   -4.2161   -1.5021   -0.6619 C   0  0  0  0  0  0  0  0  0  0  0  0
   -3.4478   -0.7066   -0.7674 H   0  0  0  0  0  0  0  0  0  0  0  0
   -4.4429   -1.8263   -1.7019 H   0  0  0  0  0  0  0  0  0  0  0  0
   -5.4613   -0.8762   -0.0172 C   0  0  0  0  0  0  0  0  0  0  0  0
   -5.1690   -0.4393    0.9639 H   0  0  0  0  0  0  0  0  0  0  0  0
   -5.7962   -0.0190   -0.6438 H   0  0  0  0  0  0  0  0  0  0  0  0
   -6.6487   -1.8277    0.1975 C   0  0  0  0  0  0  0  0  0  0  0  0
   -6.3581   -2.6299    0.9107 H   0  0  0  0  0  0  0  0  0  0  0  0
   -7.4640   -1.2656    0.7025 H   0  0  0  0  0  0  0  0  0  0  0  0
  1  3  1  0  0  0  0
  1  4  1  0  0  0  0
  2  1  1  0  0  0  0
  4  6  1  0  0  0  0
  5  4  1  0  0  0  0
  7  4  1  0  0  0  0
  7  8  1  0  0  0  0
  7 14  1  0  0  0  0
  9  7  1  0  0  0  0
 10 11  1  0  0  0  0
 10 23  1  0  0  0  0
 12 10  1  0  0  0  0
 13 10  1  0  0  0  0
 14 16  1  0  0  0  0
 15 14  1  0  0  0  0
 17 20  1  0  0  0  0
 17 14  1  0  0  0  0
 18 17  1  0  0  0  0
 19 17  1  0  0  0  0
 20 23  1  0  0  0  0
 20 21  1  0  0  0  0
 22 20  1  0  0  0  0
 23 25  1  0  0  0  0
 23 24  1  0  0  0  0
M  END
