6
 OpenBabel05122313113D

 26 28  0  0  0  0  0  0  0  0999 V2000
    0.6972    2.7926    0.3078 N   0  0  0  0  0  0  0  0  0  0  0  0
   -0.1998    3.7743    0.3769 N   0  0  0  0  0  2  0  0  0  0  0  0
   -1.3606    3.1640    0.2658 N   0  0  0  0  0  0  0  0  0  0  0  0
   -3.5241    1.2323   -0.5627 N   0  0  0  0  0  0  0  0  0  0  0  0
   -2.3715   -0.2591    0.7041 O   0  0  0  0  0  0  0  0  0  0  0  0
    0.1655    1.5215    0.1322 C   0  0  0  0  0  3  0  0  0  0  0  0
   -1.2241    1.7987    0.1363 C   0  0  0  0  0  0  0  0  0  0  0  0
   -2.3913    0.9425    0.0304 C   0  0  0  0  0  0  0  0  0  0  0  0
   -3.5980   -0.8100    0.4430 C   0  0  0  0  0  0  0  0  0  0  0  0
   -4.1078   -2.0423    0.8525 C   0  0  0  0  0  0  0  0  0  0  0  0
   -3.5201   -2.7463    1.4564 H   0  0  0  0  0  0  0  0  0  0  0  0
   -5.4194   -2.3272    0.4362 C   0  0  0  0  0  0  0  0  0  0  0  0
   -5.8741   -3.2868    0.7241 H   0  0  0  0  0  0  0  0  0  0  0  0
   -6.1674   -1.4165   -0.3471 C   0  0  0  0  0  0  0  0  0  0  0  0
   -7.1888   -1.6899   -0.6512 H   0  0  0  0  0  0  0  0  0  0  0  0
   -5.6382   -0.1817   -0.7472 C   0  0  0  0  0  0  0  0  0  0  0  0
   -6.2121    0.5274   -1.3600 H   0  0  0  0  0  0  0  0  0  0  0  0
   -4.3264    0.1203   -0.3397 C   0  0  0  0  0  0  0  0  0  0  0  0
    2.1025    3.1540    0.4265 C   0  0  0  0  0  0  0  0  0  0  0  0
    2.1795    4.2477    0.3034 H   0  0  0  0  0  0  0  0  0  0  0  0
    2.6534    2.6154   -0.3718 H   0  0  0  0  0  0  0  0  0  0  0  0
    2.4804    2.8576    1.4230 H   0  0  0  0  0  0  0  0  0  0  0  0
   -2.5825    3.9565    0.3007 C   0  0  0  0  0  0  0  0  0  0  0  0
   -3.1495    3.7298    1.2243 H   0  0  0  0  0  0  0  0  0  0  0  0
   -3.2109    3.6901   -0.5674 H   0  0  0  0  0  0  0  0  0  0  0  0
   -2.2849    5.0187    0.2853 H   0  0  0  0  0  0  0  0  0  0  0  0
  1  2  1  0  0  0  0
  1 19  1  0  0  0  0
  3 23  1  0  0  0  0
  3  2  1  0  0  0  0
  4 18  1  0  0  0  0
  4  8  2  0  0  0  0
  6  7  2  0  0  0  0
  6  1  1  0  0  0  0
  7  3  1  0  0  0  0
  8  7  1  0  0  0  0
  8  5  1  0  0  0  0
  9  5  1  0  0  0  0
  9 10  1  0  0  0  0
 10 11  1  0  0  0  0
 12 13  1  0  0  0  0
 12 10  2  0  0  0  0
 14 12  1  0  0  0  0
 15 14  1  0  0  0  0
 16 14  2  0  0  0  0
 16 18  1  0  0  0  0
 17 16  1  0  0  0  0
 18  9  2  0  0  0  0
 19 22  1  0  0  0  0
 20 19  1  0  0  0  0
 21 19  1  0  0  0  0
 23 24  1  0  0  0  0
 25 23  1  0  0  0  0
 26 23  1  0  0  0  0
M  END
