26
 OpenBabel05122313113D

 48 50  0  0  0  0  0  0  0  0999 V2000
    0.9775   -0.0404   -0.1333 P   0  0  0  0  0  0  0  0  0  0  0  0
    3.8093   -0.6663    0.2950 O   0  0  0  0  0  0  0  0  0  0  0  0
   -0.3801   -0.8010    2.5842 O   0  0  0  0  0  0  0  0  0  0  0  0
   -3.1730   -2.0729   -1.0711 O   0  0  0  0  0  0  0  0  0  0  0  0
   -2.4043   -3.6139    0.3994 O   0  0  0  0  0  0  0  0  0  0  0  0
    1.9010    1.4823   -0.5660 C   0  0  0  0  0  0  0  0  0  0  0  0
    2.7164    2.1536    0.3670 C   0  0  0  0  0  0  0  0  0  0  0  0
    3.3607    3.3476    0.0066 C   0  0  0  0  0  0  0  0  0  0  0  0
    3.2069    3.8737   -1.2859 C   0  0  0  0  0  0  0  0  0  0  0  0
    2.3844    3.2144   -2.2142 C   0  0  0  0  0  0  0  0  0  0  0  0
    1.7191    2.0344   -1.8527 C   0  0  0  0  0  0  0  0  0  0  0  0
    1.4271   -1.3106   -1.3938 C   0  0  0  0  0  0  0  0  0  0  0  0
    0.8161   -2.5800   -1.3080 C   0  0  0  0  0  0  0  0  0  0  0  0
    1.1209   -3.5736   -2.2487 C   0  0  0  0  0  0  0  0  0  0  0  0
    2.0363   -3.3148   -3.2805 C   0  0  0  0  0  0  0  0  0  0  0  0
    2.6607   -2.0605   -3.3561 C   0  0  0  0  0  0  0  0  0  0  0  0
    2.3656   -1.0627   -2.4153 C   0  0  0  0  0  0  0  0  0  0  0  0
    1.7379   -0.6699    1.4140 C   0  0  0  0  0  0  0  0  0  0  0  0
    3.1489   -0.8945    1.4499 C   0  0  0  0  0  0  0  0  0  0  0  0
    3.7739   -1.3072    2.6436 C   0  0  0  0  0  0  0  0  0  0  0  0
    3.0041   -1.5165    3.7958 C   0  0  0  0  0  0  0  0  0  0  0  0
    1.6142   -1.3490    3.7756 C   0  0  0  0  0  0  0  0  0  0  0  0
    0.9951   -0.9463    2.5847 C   0  0  0  0  0  0  0  0  0  0  0  0
    5.2163   -0.8671    0.2301 C   0  0  0  0  0  0  0  0  0  0  0  0
   -1.0969   -1.7195    1.8328 C   0  0  0  0  0  0  0  0  0  0  0  0
   -1.6141   -1.3909    0.6299 C   0  0  0  0  0  3  0  0  0  0  0  0
   -2.4780   -2.3580   -0.1050 C   0  0  0  0  0  0  0  0  0  0  0  0
   -3.2311   -4.5950   -0.2492 C   0  0  0  0  0  0  0  0  0  0  0  0
    2.8543    1.7406    1.3772 H   0  0  0  0  0  0  0  0  0  0  0  0
    3.9950    3.8657    0.7414 H   0  0  0  0  0  0  0  0  0  0  0  0
    3.7233    4.8030   -1.5686 H   0  0  0  0  0  0  0  0  0  0  0  0
    2.2514    3.6268   -3.2256 H   0  0  0  0  0  0  0  0  0  0  0  0
    1.0536    1.5411   -2.5779 H   0  0  0  0  0  0  0  0  0  0  0  0
    0.1091   -2.8045   -0.4983 H   0  0  0  0  0  0  0  0  0  0  0  0
    0.6372   -4.5587   -2.1709 H   0  0  0  0  0  0  0  0  0  0  0  0
    2.2690   -4.0936   -4.0219 H   0  0  0  0  0  0  0  0  0  0  0  0
    3.3911   -1.8540   -4.1527 H   0  0  0  0  0  0  0  0  0  0  0  0
    2.8823   -0.0953   -2.4725 H   0  0  0  0  0  0  0  0  0  0  0  0
    4.8589   -1.4669    2.6762 H   0  0  0  0  0  0  0  0  0  0  0  0
    3.5010   -1.8364    4.7237 H   0  0  0  0  0  0  0  0  0  0  0  0
    0.9909   -1.5403    4.6594 H   0  0  0  0  0  0  0  0  0  0  0  0
    5.7556   -0.1793    0.9161 H   0  0  0  0  0  0  0  0  0  0  0  0
    5.4865   -1.9173    0.4692 H   0  0  0  0  0  0  0  0  0  0  0  0
    5.5063   -0.6452   -0.8124 H   0  0  0  0  0  0  0  0  0  0  0  0
   -1.2357   -2.7047    2.3135 H   0  0  0  0  0  0  0  0  0  0  0  0
   -3.0366   -5.5478    0.2730 H   0  0  0  0  0  0  0  0  0  0  0  0
   -4.3017   -4.3204   -0.1697 H   0  0  0  0  0  0  0  0  0  0  0  0
   -2.9692   -4.6761   -1.3229 H   0  0  0  0  0  0  0  0  0  0  0  0
  1 18  1  0  0  0  0
  2 19  1  0  0  0  0
  3 23  1  0  0  0  0
  4 27  2  0  0  0  0
  6  1  1  0  0  0  0
  6  7  1  0  0  0  0
  7 29  1  0  0  0  0
  8  7  2  0  0  0  0
  8 30  1  0  0  0  0
  9  8  1  0  0  0  0
 10 11  1  0  0  0  0
 10  9  2  0  0  0  0
 11  6  2  0  0  0  0
 12 13  1  0  0  0  0
 12  1  1  0  0  0  0
 13 34  1  0  0  0  0
 14 35  1  0  0  0  0
 14 13  2  0  0  0  0
 15 14  1  0  0  0  0
 16 15  2  0  0  0  0
 16 17  1  0  0  0  0
 17 12  2  0  0  0  0
 18 19  2  0  0  0  0
 18 23  1  0  0  0  0
 19 20  1  0  0  0  0
 20 39  1  0  0  0  0
 20 21  2  0  0  0  0
 21 40  1  0  0  0  0
 22 21  1  0  0  0  0
 22 41  1  0  0  0  0
 23 22  2  0  0  0  0
 24  2  1  0  0  0  0
 24 43  1  0  0  0  0
 24 42  1  0  0  0  0
 25 45  1  0  0  0  0
 25  3  1  0  0  0  0
 26 25  2  0  0  0  0
 27  5  1  0  0  0  0
 27 26  1  0  0  0  0
 28 47  1  0  0  0  0
 28 46  1  0  0  0  0
 28  5  1  0  0  0  0
 31  9  1  0  0  0  0
 32 10  1  0  0  0  0
 33 11  1  0  0  0  0
 36 15  1  0  0  0  0
 37 16  1  0  0  0  0
 38 17  1  0  0  0  0
 44 24  1  0  0  0  0
 48 28  1  0  0  0  0
M  END
