3
 OpenBabel05122313113D

 37 39  0  0  0  0  0  0  0  0999 V2000
   -1.3437    0.5068    1.4473 N   0  0  0  0  0  0  0  0  0  0  0  0
    0.7341    1.1548    1.5842 N   0  0  0  0  0  0  0  0  0  0  0  0
   -0.0802    0.2073    1.0453 C   0  0  0  0  0  2  0  0  0  0  0  0
   -1.4193    1.6578    2.3579 C   0  0  0  0  0  0  0  0  0  0  0  0
    0.0128    2.2004    2.3259 C   0  0  0  0  0  0  0  0  0  0  0  0
   -2.5736   -0.1741    1.1009 C   0  0  0  0  0  0  0  0  0  0  0  0
   -3.5308    0.7029    0.3145 C   0  0  0  0  0  0  0  0  0  0  0  0
   -4.9104    0.6840    0.5890 C   0  0  0  0  0  0  0  0  0  0  0  0
   -5.8002    1.4653   -0.1645 C   0  0  0  0  0  0  0  0  0  0  0  0
   -5.3165    2.2833   -1.1969 C   0  0  0  0  0  0  0  0  0  0  0  0
   -3.9396    2.3139   -1.4728 C   0  0  0  0  0  0  0  0  0  0  0  0
   -3.0535    1.5278   -0.7235 C   0  0  0  0  0  0  0  0  0  0  0  0
    2.1379    1.3700    1.2966 C   0  0  0  0  0  0  0  0  0  0  0  0
    2.3851    2.5745    0.4048 C   0  0  0  0  0  0  0  0  0  0  0  0
    3.4529    3.4523    0.6659 C   0  0  0  0  0  0  0  0  0  0  0  0
    3.7037    4.5449   -0.1786 C   0  0  0  0  0  0  0  0  0  0  0  0
    2.8799    4.7776   -1.2904 C   0  0  0  0  0  0  0  0  0  0  0  0
    1.8066    3.9109   -1.5542 C   0  0  0  0  0  0  0  0  0  0  0  0
    1.5623    2.8162   -0.7135 C   0  0  0  0  0  0  0  0  0  0  0  0
   -1.7313    1.3158    3.3698 H   0  0  0  0  0  0  0  0  0  0  0  0
   -2.1744    2.3869    1.9997 H   0  0  0  0  0  0  0  0  0  0  0  0
    0.4543    2.3342    3.3352 H   0  0  0  0  0  0  0  0  0  0  0  0
    0.0969    3.1703    1.7890 H   0  0  0  0  0  0  0  0  0  0  0  0
   -2.2980   -1.0651    0.5053 H   0  0  0  0  0  0  0  0  0  0  0  0
   -3.0712   -0.5451    2.0246 H   0  0  0  0  0  0  0  0  0  0  0  0
   -5.2919    0.0474    1.4036 H   0  0  0  0  0  0  0  0  0  0  0  0
   -6.8772    1.4389    0.0608 H   0  0  0  0  0  0  0  0  0  0  0  0
   -6.0122    2.8994   -1.7863 H   0  0  0  0  0  0  0  0  0  0  0  0
   -3.5534    2.9514   -2.2826 H   0  0  0  0  0  0  0  0  0  0  0  0
   -1.9746    1.5493   -0.9427 H   0  0  0  0  0  0  0  0  0  0  0  0
    2.6953    1.4865    2.2513 H   0  0  0  0  0  0  0  0  0  0  0  0
    2.5177    0.4507    0.8112 H   0  0  0  0  0  0  0  0  0  0  0  0
    4.0973    3.2759    1.5423 H   0  0  0  0  0  0  0  0  0  0  0  0
    4.5446    5.2215    0.0372 H   0  0  0  0  0  0  0  0  0  0  0  0
    3.0729    5.6358   -1.9517 H   0  0  0  0  0  0  0  0  0  0  0  0
    1.1582    4.0852   -2.4263 H   0  0  0  0  0  0  0  0  0  0  0  0
    0.7258    2.1319   -0.9267 H   0  0  0  0  0  0  0  0  0  0  0  0
  1  4  1  0  0  0  0
  2  5  1  0  0  0  0
  3  1  1  0  0  0  0
  3  2  1  0  0  0  0
  4 20  1  0  0  0  0
  5  4  1  0  0  0  0
  5 22  1  0  0  0  0
  6  1  1  0  0  0  0
  6 25  1  0  0  0  0
  7  8  1  0  0  0  0
  7  6  1  0  0  0  0
  8 26  1  0  0  0  0
  9 27  1  0  0  0  0
  9  8  2  0  0  0  0
 10  9  1  0  0  0  0
 11 10  2  0  0  0  0
 11 12  1  0  0  0  0
 12  7  2  0  0  0  0
 13  2  1  0  0  0  0
 13 31  1  0  0  0  0
 14 15  1  0  0  0  0
 14 13  1  0  0  0  0
 15 33  1  0  0  0  0
 16 34  1  0  0  0  0
 16 15  2  0  0  0  0
 17 16  1  0  0  0  0
 18 17  2  0  0  0  0
 18 19  1  0  0  0  0
 19 14  2  0  0  0  0
 21  4  1  0  0  0  0
 23  5  1  0  0  0  0
 24  6  1  0  0  0  0
 28 10  1  0  0  0  0
 29 11  1  0  0  0  0
 30 12  1  0  0  0  0
 32 13  1  0  0  0  0
 35 17  1  0  0  0  0
 36 18  1  0  0  0  0
 37 19  1  0  0  0  0
M  END
