4
 OpenBabel05122313113D

 35 36  0  0  0  0  0  0  0  0999 V2000
    1.6961   -1.8697   -0.1755 N   0  0  0  0  0  2  0  0  0  0  0  0
    1.1721   -2.7175   -1.0955 C   0  0  0  0  0  3  0  0  0  0  0  0
    1.7968   -3.1981   -1.8762 H   0  0  0  0  0  0  0  0  0  0  0  0
   -0.2406   -2.9325   -1.0548 C   0  0  0  0  0  3  0  0  0  0  0  0
   -0.7245   -3.5398   -1.8340 H   0  0  0  0  0  0  0  0  0  0  0  0
   -0.9519   -2.2803    0.0032 C   0  0  0  0  0  3  0  0  0  0  0  0
   -0.3878   -2.1613    0.9409 H   0  0  0  0  0  0  0  0  0  0  0  0
   -2.4137   -2.2791    0.1533 C   0  0  0  0  0  0  0  0  0  0  0  0
   -3.3058   -2.5640   -0.9101 C   0  0  0  0  0  0  0  0  0  0  0  0
   -2.9113   -2.8200   -1.9040 H   0  0  0  0  0  0  0  0  0  0  0  0
   -4.6928   -2.4922   -0.7257 C   0  0  0  0  0  0  0  0  0  0  0  0
   -5.3640   -2.7107   -1.5706 H   0  0  0  0  0  0  0  0  0  0  0  0
   -5.2285   -2.1354    0.5238 C   0  0  0  0  0  0  0  0  0  0  0  0
   -6.3183   -2.0718    0.6631 H   0  0  0  0  0  0  0  0  0  0  0  0
   -4.3579   -1.8673    1.5934 C   0  0  0  0  0  0  0  0  0  0  0  0
   -4.7623   -1.5923    2.5796 H   0  0  0  0  0  0  0  0  0  0  0  0
   -2.9717   -1.9439    1.4125 C   0  0  0  0  0  0  0  0  0  0  0  0
   -2.2961   -1.7264    2.2531 H   0  0  0  0  0  0  0  0  0  0  0  0
    3.1303   -1.6200   -0.3149 C   0  0  0  0  0  0  0  0  0  0  0  0
    3.4447   -1.7004   -1.3893 H   0  0  0  0  0  0  0  0  0  0  0  0
    3.5153   -0.2186    0.1689 C   0  0  0  0  0  0  0  0  0  0  0  0
    2.9842    0.5402   -0.4359 H   0  0  0  0  0  0  0  0  0  0  0  0
    3.1562   -0.0920    1.2138 H   0  0  0  0  0  0  0  0  0  0  0  0
    5.0281    0.0156    0.1108 C   0  0  0  0  0  0  0  0  0  0  0  0
    5.2642    1.0307    0.4930 H   0  0  0  0  0  0  0  0  0  0  0  0
    5.3582    0.0003   -0.9524 H   0  0  0  0  0  0  0  0  0  0  0  0
    5.7971   -1.0554    0.8941 C   0  0  0  0  0  0  0  0  0  0  0  0
    5.5512   -0.9630    1.9762 H   0  0  0  0  0  0  0  0  0  0  0  0
    6.8920   -0.8939    0.8065 H   0  0  0  0  0  0  0  0  0  0  0  0
    5.4225   -2.4633    0.4136 C   0  0  0  0  0  0  0  0  0  0  0  0
    5.9479   -3.2354    1.0141 H   0  0  0  0  0  0  0  0  0  0  0  0
    5.7702   -2.5945   -0.6358 H   0  0  0  0  0  0  0  0  0  0  0  0
    3.9073   -2.6926    0.4756 C   0  0  0  0  0  0  0  0  0  0  0  0
    3.5576   -2.6588    1.5314 H   0  0  0  0  0  0  0  0  0  0  0  0
    3.6438   -3.7004    0.0904 H   0  0  0  0  0  0  0  0  0  0  0  0
  2  4  1  0  0  0  0
  2  1  1  0  0  0  0
  3  2  1  0  0  0  0
  4  6  1  0  0  0  0
  5  4  1  0  0  0  0
  6  8  1  0  0  0  0
  6  7  1  0  0  0  0
  8 17  1  0  0  0  0
  9 11  1  0  0  0  0
  9  8  2  0  0  0  0
 10  9  1  0  0  0  0
 11 13  2  0  0  0  0
 12 11  1  0  0  0  0
 13 14  1  0  0  0  0
 13 15  1  0  0  0  0
 15 16  1  0  0  0  0
 17 15  2  0  0  0  0
 17 18  1  0  0  0  0
 19  1  1  0  0  0  0
 19 21  1  0  0  0  0
 19 33  1  0  0  0  0
 20 19  1  0  0  0  0
 21 23  1  0  0  0  0
 22 21  1  0  0  0  0
 24 21  1  0  0  0  0
 24 25  1  0  0  0  0
 24 27  1  0  0  0  0
 26 24  1  0  0  0  0
 27 28  1  0  0  0  0
 29 27  1  0  0  0  0
 30 33  1  0  0  0  0
 30 27  1  0  0  0  0
 30 31  1  0  0  0  0
 32 30  1  0  0  0  0
 33 34  1  0  0  0  0
 35 33  1  0  0  0  0
M  END
