4
 OpenBabel05122313113D

 35 36  0  0  0  0  0  0  0  0999 V2000
    0.2744   -0.5328   -1.1694 N   0  0  0  0  0  0  0  0  0  0  0  0
   -0.1892   -1.8146   -1.0765 C   0  0  0  0  0  0  0  0  0  0  0  0
    0.4597   -2.6654   -0.8010 H   0  0  0  0  0  0  0  0  0  0  0  0
   -1.5860   -1.9690   -1.3123 C   0  0  0  0  0  3  0  0  0  0  0  0
   -2.0606   -2.9480   -1.1484 H   0  0  0  0  0  0  0  0  0  0  0  0
   -2.3203   -0.7900   -1.6746 C   0  0  0  0  0  3  0  0  0  0  0  0
   -1.7695   -0.0754   -2.3065 H   0  0  0  0  0  0  0  0  0  0  0  0
   -3.7830   -0.7543   -1.8378 C   0  0  0  0  0  0  0  0  0  0  0  0
   -4.3613    0.2883   -2.5997 C   0  0  0  0  0  0  0  0  0  0  0  0
   -3.6996    1.0465   -3.0468 H   0  0  0  0  0  0  0  0  0  0  0  0
   -5.7453    0.3699   -2.7908 C   0  0  0  0  0  0  0  0  0  0  0  0
   -6.1676    1.1906   -3.3912 H   0  0  0  0  0  0  0  0  0  0  0  0
   -6.5932   -0.5950   -2.2218 C   0  0  0  0  0  0  0  0  0  0  0  0
   -7.6823   -0.5341   -2.3678 H   0  0  0  0  0  0  0  0  0  0  0  0
   -6.0369   -1.6397   -1.4660 C   0  0  0  0  0  0  0  0  0  0  0  0
   -6.6909   -2.4015   -1.0149 H   0  0  0  0  0  0  0  0  0  0  0  0
   -4.6513   -1.7186   -1.2754 C   0  0  0  0  0  0  0  0  0  0  0  0
   -4.2426   -2.5375   -0.6658 H   0  0  0  0  0  0  0  0  0  0  0  0
    1.6169   -0.2182   -1.0795 C   0  0  0  0  0  0  0  0  0  0  0  0
    2.0013    1.0822   -0.6701 C   0  0  0  0  0  0  0  0  0  0  0  0
    1.2224    1.7967   -0.3745 H   0  0  0  0  0  0  0  0  0  0  0  0
    3.3505    1.4476   -0.6095 C   0  0  0  0  0  0  0  0  0  0  0  0
    4.3679    0.5349   -0.9326 C   0  0  0  0  0  0  0  0  0  0  0  0
    5.4248    0.8241   -0.8790 H   0  0  0  0  0  0  0  0  0  0  0  0
    3.9920   -0.7575   -1.3366 C   0  0  0  0  0  0  0  0  0  0  0  0
    2.6459   -1.1286   -1.4342 C   0  0  0  0  0  0  0  0  0  0  0  0
    2.3919   -2.1398   -1.7793 H   0  0  0  0  0  0  0  0  0  0  0  0
    3.6971    2.8316   -0.1176 C   0  0  0  0  0  0  0  0  0  0  0  0
    3.6015    2.9125    1.2427 F   0  0  0  0  0  0  0  0  0  0  0  0
    4.9581    3.1933   -0.4427 F   0  0  0  0  0  0  0  0  0  0  0  0
    2.8573    3.7707   -0.6176 F   0  0  0  0  0  0  0  0  0  0  0  0
    5.0552   -1.8027   -1.5667 C   0  0  0  0  0  0  0  0  0  0  0  0
    6.2292   -1.2657   -1.9681 F   0  0  0  0  0  0  0  0  0  0  0  0
    5.3113   -2.4915   -0.4144 F   0  0  0  0  0  0  0  0  0  0  0  0
    4.6840   -2.7201   -2.4908 F   0  0  0  0  0  0  0  0  0  0  0  0
  1 19  1  0  0  0  0
  1  2  2  0  0  0  0
  2  3  1  0  0  0  0
  4  5  1  0  0  0  0
  4  2  1  0  0  0  0
  6  4  1  0  0  0  0
  7  6  1  0  0  0  0
  8  6  1  0  0  0  0
  8 17  1  0  0  0  0
  9  8  2  0  0  0  0
 10  9  1  0  0  0  0
 11  9  1  0  0  0  0
 11 13  2  0  0  0  0
 12 11  1  0  0  0  0
 13 15  1  0  0  0  0
 14 13  1  0  0  0  0
 15 17  2  0  0  0  0
 15 16  1  0  0  0  0
 17 18  1  0  0  0  0
 19 20  1  0  0  0  0
 20 22  2  0  0  0  0
 20 21  1  0  0  0  0
 22 28  1  0  0  0  0
 23 24  1  0  0  0  0
 23 22  1  0  0  0  0
 25 23  2  0  0  0  0
 26 25  1  0  0  0  0
 26 19  2  0  0  0  0
 27 26  1  0  0  0  0
 28 29  1  0  0  0  0
 30 28  1  0  0  0  0
 31 28  1  0  0  0  0
 32 25  1  0  0  0  0
 32 34  1  0  0  0  0
 33 32  1  0  0  0  0
 35 32  1  0  0  0  0
M  END
