16
 OpenBabel05122313113D

 27 29  0  0  0  0  0  0  0  0999 V2000
   -5.0734   -0.3238    1.3807 Cl  0  0  0  0  0  0  0  0  0  0  0  0
   -2.5266    1.4012    0.3320 B   0  0  0  0  0  0  0  0  0  0  0  0
   -3.6221    2.2560    0.3816 F   0  0  0  0  0  0  0  0  0  0  0  0
   -1.9534    1.2539    1.6197 F   0  0  0  0  0  0  0  0  0  0  0  0
   -2.9272    0.0061   -0.2508 N   0  0  0  0  0  0  0  0  0  0  0  0
   -1.4405    2.0079   -0.6342 N   0  0  0  0  0  0  0  0  0  0  0  0
   -3.0161   -1.7863   -1.6462 C   0  0  0  0  0  0  0  0  0  0  0  0
   -2.7683   -2.4817   -2.4573 H   0  0  0  0  0  0  0  0  0  0  0  0
   -4.1255   -1.8658   -0.7568 C   0  0  0  0  0  0  0  0  0  0  0  0
   -4.9131   -2.6247   -0.7170 H   0  0  0  0  0  0  0  0  0  0  0  0
   -4.0273   -0.7513    0.0790 C   0  0  0  0  0  0  0  0  0  0  0  0
   -0.9820    3.2906   -0.6547 C   0  0  0  0  0  0  0  0  0  0  0  0
    0.0807    3.3932   -1.5773 C   0  0  0  0  0  0  0  0  0  0  0  0
    0.6412    4.3104   -1.7949 H   0  0  0  0  0  0  0  0  0  0  0  0
    0.2983    2.1178   -2.1440 C   0  0  0  0  0  0  0  0  0  0  0  0
   -1.0086   -0.1415   -1.8005 C   0  0  0  0  0  3  0  0  0  0  0  0
   -0.6978   -0.5516   -2.7758 H   0  0  0  0  0  0  0  0  0  0  0  0
   -0.6789    1.2532   -1.5353 C   0  0  0  0  0  0  0  0  0  0  0  0
   -2.2887   -0.6363   -1.3044 C   0  0  0  0  0  0  0  0  0  0  0  0
   -1.5256    4.3489    0.2471 C   0  0  0  0  0  0  0  0  0  0  0  0
   -2.6242    4.4322    0.1404 H   0  0  0  0  0  0  0  0  0  0  0  0
   -1.0532    5.3251    0.0321 H   0  0  0  0  0  0  0  0  0  0  0  0
   -1.3400    4.0864    1.3100 H   0  0  0  0  0  0  0  0  0  0  0  0
    1.2265    1.7620   -3.2657 C   0  0  0  0  0  0  0  0  0  0  0  0
    1.3642    0.6673   -3.3551 H   0  0  0  0  0  0  0  0  0  0  0  0
    2.2287    2.2137   -3.1200 H   0  0  0  0  0  0  0  0  0  0  0  0
    0.8398    2.1403   -4.2367 H   0  0  0  0  0  0  0  0  0  0  0  0
  2  3  1  0  0  0  0
  2  4  1  0  0  0  0
  5 11  1  0  0  0  0
  5  2  1  0  0  0  0
  6  2  1  0  0  0  0
  7 19  2  0  0  0  0
  7  9  1  0  0  0  0
  8  7  1  0  0  0  0
  9 10  1  0  0  0  0
  9 11  2  0  0  0  0
 11  1  1  0  0  0  0
 12  6  1  0  0  0  0
 12 20  1  0  0  0  0
 13 12  2  0  0  0  0
 14 13  1  0  0  0  0
 15 13  1  0  0  0  0
 15 18  2  0  0  0  0
 16 18  1  0  0  0  0
 16 19  1  0  0  0  0
 17 16  1  0  0  0  0
 18  6  1  0  0  0  0
 19  5  1  0  0  0  0
 20 23  1  0  0  0  0
 21 20  1  0  0  0  0
 22 20  1  0  0  0  0
 24 26  1  0  0  0  0
 24 15  1  0  0  0  0
 25 24  1  0  0  0  0
 27 24  1  0  0  0  0
M  END
