3
 OpenBabel05122313113D

 25 26  0  0  0  0  0  0  0  0999 V2000
    8.6344    1.1723   -0.2244 O   0  0  0  0  0  0  0  0  0  0  0  0
    8.6330   -1.1751   -0.2153 O   0  0  0  0  0  0  0  0  0  0  0  0
    1.1059    0.0042    0.1129 C   0  0  0  0  0  1  0  0  0  0  0  0
    2.3467    0.0038    0.1490 C   0  0  0  0  0  2  0  0  0  0  0  0
    3.7725    0.0031    0.1910 C   0  0  0  0  0  0  0  0  0  0  0  0
    4.5046    1.2192    0.2058 C   0  0  0  0  0  0  0  0  0  0  0  0
    5.9018    1.2155    0.2498 C   0  0  0  0  0  0  0  0  0  0  0  0
    6.6133    0.0018    0.2802 C   0  0  0  0  0  0  0  0  0  0  0  0
    5.9003   -1.2112    0.2607 C   0  0  0  0  0  0  0  0  0  0  0  0
    4.5031   -1.2137    0.2168 C   0  0  0  0  0  0  0  0  0  0  0  0
    8.1204    0.0013    0.3789 C   0  0  0  0  0  0  0  0  0  0  0  0
   10.0487    1.2418   -0.0856 C   0  0  0  0  0  0  0  0  0  0  0  0
   10.7055   -0.0045   -0.6844 C   0  0  0  0  0  0  0  0  0  0  0  0
   10.0472   -1.2452   -0.0760 C   0  0  0  0  0  0  0  0  0  0  0  0
    3.9524    2.1698    0.1785 H   0  0  0  0  0  0  0  0  0  0  0  0
    6.4617    2.1614    0.2496 H   0  0  0  0  0  0  0  0  0  0  0  0
    6.4590   -2.1578    0.2689 H   0  0  0  0  0  0  0  0  0  0  0  0
    3.9498   -2.1638    0.1980 H   0  0  0  0  0  0  0  0  0  0  0  0
    8.4399    0.0053    1.4623 H   0  0  0  0  0  0  0  0  0  0  0  0
   10.3744    2.1702   -0.5952 H   0  0  0  0  0  0  0  0  0  0  0  0
   10.3215    1.3305    0.9975 H   0  0  0  0  0  0  0  0  0  0  0  0
   10.5450   -0.0086   -1.7825 H   0  0  0  0  0  0  0  0  0  0  0  0
   11.7993   -0.0044   -0.4942 H   0  0  0  0  0  0  0  0  0  0  0  0
   10.3717   -2.1779   -0.5784 H   0  0  0  0  0  0  0  0  0  0  0  0
   10.3199   -1.3259    1.0077 H   0  0  0  0  0  0  0  0  0  0  0  0
  1 12  1  0  0  0  0
  1 11  1  0  0  0  0
  2 14  1  0  0  0  0
  2 11  1  0  0  0  0
  3  4  1  0  0  0  0
  4  5  1  0  0  0  0
  5  6  2  0  0  0  0
  5 10  1  0  0  0  0
  6  7  1  0  0  0  0
  7  8  2  0  0  0  0
  8 11  1  0  0  0  0
  9 17  1  0  0  0  0
  9  8  1  0  0  0  0
 10  9  2  0  0  0  0
 11 19  1  0  0  0  0
 12 21  1  0  0  0  0
 13 23  1  0  0  0  0
 13 12  1  0  0  0  0
 13 14  1  0  0  0  0
 14 25  1  0  0  0  0
 15  6  1  0  0  0  0
 16  7  1  0  0  0  0
 18 10  1  0  0  0  0
 20 12  1  0  0  0  0
 22 13  1  0  0  0  0
 24 14  1  0  0  0  0
M  END
