8
 OpenBabel05122313113D

 44 46  0  0  1  0  0  0  0  0999 V2000
   -1.9754    0.2801    0.5414 N   0  0  0  0  0  0  0  0  0  0  0  0
   -2.7553    1.1993    2.4388 O   0  0  0  0  0  0  0  0  0  0  0  0
   -2.7750    2.4332    0.5097 O   0  0  0  0  0  0  0  0  0  0  0  0
    0.0883   -2.4774    1.6427 O   0  0  0  0  0  0  0  0  0  0  0  0
   -4.8525    1.3544   -2.6781 O   0  0  0  0  0  0  0  0  0  0  0  0
   -4.8797    0.1754   -0.7260 O   0  0  0  0  0  0  0  0  0  0  0  0
   -0.3196   -1.5128    0.7661 C   0  0  1  0  0  3  0  0  0  0  0  0
    0.0410   -1.5031   -0.6066 C   0  0  0  0  0  3  0  0  0  0  0  0
   -0.5454   -0.3824   -1.3221 C   0  0  0  0  0  3  0  0  0  0  0  0
   -1.9707    0.0056   -0.8853 C   0  0  1  0  0  0  0  0  0  0  0  0
   -2.8864   -1.2643   -0.9678 C   0  0  1  0  0  0  0  0  0  0  0  0
   -2.7705   -1.9110    0.4644 C   0  0  1  0  0  0  0  0  0  0  0  0
   -1.7107   -0.9992    1.1643 C   0  0  2  0  0  0  0  0  0  0  0  0
   -4.1120   -1.9099    1.2063 C   0  0  0  0  0  0  0  0  0  0  0  0
   -5.2250   -2.5971    0.3988 C   0  0  0  0  0  0  0  0  0  0  0  0
   -5.2279   -2.1884   -1.0976 C   0  0  0  0  0  0  0  0  0  0  0  0
   -4.3345   -0.9866   -1.4020 C   0  0  1  0  0  0  0  0  0  0  0  0
   -5.1155    1.2883   -1.4924 C   0  0  0  0  0  0  0  0  0  0  0  0
   -5.6985    2.3954   -0.6584 C   0  0  0  0  0  0  0  0  0  0  0  0
   -2.5259    1.3938    1.1082 C   0  0  0  0  0  0  0  0  0  0  0  0
   -3.0783    2.3793    3.1725 C   0  0  0  0  0  0  0  0  0  0  0  0
    0.8932   -3.5403    1.1439 C   0  0  0  0  0  0  0  0  0  0  0  0
    0.6133   -2.2989   -1.1038 H   0  0  0  0  0  0  0  0  0  0  0  0
   -0.4286   -0.3890   -2.4181 H   0  0  0  0  0  0  0  0  0  0  0  0
   -2.3465    0.8795   -1.4469 H   0  0  0  0  0  0  0  0  0  0  0  0
   -2.4793   -1.9624   -1.7274 H   0  0  0  0  0  0  0  0  0  0  0  0
   -2.3939   -2.9533    0.3924 H   0  0  0  0  0  0  0  0  0  0  0  0
   -1.8077   -0.9476    2.2617 H   0  0  0  0  0  0  0  0  0  0  0  0
   -3.9920   -2.4056    2.1918 H   0  0  0  0  0  0  0  0  0  0  0  0
   -4.3986   -0.8595    1.4094 H   0  0  0  0  0  0  0  0  0  0  0  0
   -6.2029   -2.3576    0.8625 H   0  0  0  0  0  0  0  0  0  0  0  0
   -5.1131   -3.6991    0.4772 H   0  0  0  0  0  0  0  0  0  0  0  0
   -4.8549   -3.0246   -1.7260 H   0  0  0  0  0  0  0  0  0  0  0  0
   -6.2556   -1.9726   -1.4518 H   0  0  0  0  0  0  0  0  0  0  0  0
   -4.3452   -0.7546   -2.4857 H   0  0  0  0  0  0  0  0  0  0  0  0
   -6.2017    3.1276   -1.3136 H   0  0  0  0  0  0  0  0  0  0  0  0
   -4.8499    2.8849   -0.1354 H   0  0  0  0  0  0  0  0  0  0  0  0
   -6.3919    1.9994    0.1069 H   0  0  0  0  0  0  0  0  0  0  0  0
   -3.3107    2.0446    4.1998 H   0  0  0  0  0  0  0  0  0  0  0  0
   -3.9513    2.9014    2.7323 H   0  0  0  0  0  0  0  0  0  0  0  0
   -2.2147    3.0749    3.1905 H   0  0  0  0  0  0  0  0  0  0  0  0
    1.1768   -4.1543    2.0180 H   0  0  0  0  0  0  0  0  0  0  0  0
    1.8151   -3.1653    0.6526 H   0  0  0  0  0  0  0  0  0  0  0  0
    0.3199   -4.1640    0.4234 H   0  0  0  0  0  0  0  0  0  0  0  0
  1 20  1  0  0  0  0
  1 13  1  0  0  0  0
  2 21  1  0  0  0  0
  3 20  2  0  0  0  0
  5 18  2  0  0  0  0
  7 13  1  0  0  0  0
  7  4  1  6  0  0  0
  8  7  1  0  0  0  0
  9 10  1  0  0  0  0
  9  8  1  0  0  0  0
 10 25  1  6  0  0  0
 10  1  1  0  0  0  0
 11 26  1  6  0  0  0
 11 10  1  0  0  0  0
 11 12  1  0  0  0  0
 12 27  1  6  0  0  0
 12 13  1  0  0  0  0
 12 14  1  0  0  0  0
 13 28  1  1  0  0  0
 14 30  1  0  0  0  0
 14 29  1  0  0  0  0
 15 32  1  0  0  0  0
 15 31  1  0  0  0  0
 15 14  1  0  0  0  0
 16 15  1  0  0  0  0
 17 35  1  6  0  0  0
 17 16  1  0  0  0  0
 17 11  1  0  0  0  0
 17  6  1  0  0  0  0
 18  6  1  0  0  0  0
 18 19  1  0  0  0  0
 19 37  1  0  0  0  0
 19 38  1  0  0  0  0
 20  2  1  0  0  0  0
 21 41  1  0  0  0  0
 21 39  1  0  0  0  0
 22  4  1  0  0  0  0
 22 42  1  0  0  0  0
 23  8  1  0  0  0  0
 24  9  1  0  0  0  0
 33 16  1  0  0  0  0
 34 16  1  0  0  0  0
 36 19  1  0  0  0  0
 40 21  1  0  0  0  0
 43 22  1  0  0  0  0
 44 22  1  0  0  0  0
M  END
