2
 OpenBabel05122313113D

 13 13  0  0  0  0  0  0  0  0999 V2000
    0.3866    1.8660   -2.3022 N   0  0  0  0  0  0  0  0  0  0  0  0
    0.0029    1.7737    0.1024 C   0  0  0  0  0  3  0  0  0  0  0  0
    0.1446    2.5309   -1.0965 C   0  0  0  0  0  0  0  0  0  0  0  0
    0.1057    3.9431   -1.0427 C   0  0  0  0  0  0  0  0  0  0  0  0
    0.2114    4.5198   -1.9766 H   0  0  0  0  0  0  0  0  0  0  0  0
   -0.0535    4.6119    0.1795 C   0  0  0  0  0  0  0  0  0  0  0  0
   -0.0822    5.7123    0.1967 H   0  0  0  0  0  0  0  0  0  0  0  0
   -0.1707    3.8795    1.3701 C   0  0  0  0  0  0  0  0  0  0  0  0
   -0.2893    4.3943    2.3357 H   0  0  0  0  0  0  0  0  0  0  0  0
   -0.1414    2.4719    1.3163 C   0  0  0  0  0  0  0  0  0  0  0  0
   -0.2463    1.8983    2.2517 H   0  0  0  0  0  0  0  0  0  0  0  0
    0.0978    2.3496   -3.1545 H   0  0  0  0  0  0  0  0  0  0  0  0
    0.1159    0.8753   -2.2680 H   0  0  0  0  0  0  0  0  0  0  0  0
  1 13  1  0  0  0  0
  1  3  1  0  0  0  0
  2 10  1  0  0  0  0
  3  4  1  0  0  0  0
  3  2  2  0  0  0  0
  4  6  2  0  0  0  0
  5  4  1  0  0  0  0
  6  7  1  0  0  0  0
  6  8  1  0  0  0  0
  8  9  1  0  0  0  0
 10  8  2  0  0  0  0
 10 11  1  0  0  0  0
 12  1  1  0  0  0  0
M  END
