5
 OpenBabel05122313113D

 47 50  0  0  1  0  0  0  0  0999 V2000
    0.6673    0.0161   -0.0059 P   0  0  0  0  0  0  0  0  0  0  0  0
   -1.8174    0.6336    1.4350 C   0  0  1  0  0  3  0  0  0  0  0  0
   -2.7208   -0.4473    1.4736 C   0  0  0  0  0  3  0  0  0  0  0  0
   -2.5628   -1.2221    2.2417 H   0  0  0  0  0  0  0  0  0  0  0  0
   -3.6742   -0.7862    0.4424 C   0  0  0  0  0  3  0  0  0  0  0  0
   -4.2590   -1.7017    0.6210 H   0  0  0  0  0  0  0  0  0  0  0  0
   -3.8634   -0.1789   -0.8368 C   0  0  0  0  0  0  0  0  0  0  0  0
   -4.5680   -0.6944   -1.5066 H   0  0  0  0  0  0  0  0  0  0  0  0
   -3.1241    0.9175   -1.4061 C   0  0  0  0  0  0  0  0  0  0  0  0
   -3.2293    1.0331   -2.4973 H   0  0  0  0  0  0  0  0  0  0  0  0
   -2.1823    1.7285   -0.7610 C   0  0  0  0  0  3  0  0  0  0  0  0
   -1.5954    2.4102   -1.3939 H   0  0  0  0  0  0  0  0  0  0  0  0
   -2.1638    1.9532    0.7351 C   0  0  0  0  0  0  0  0  0  0  0  0
   -3.1328    2.3549    1.1094 H   0  0  0  0  0  0  0  0  0  0  0  0
   -1.3841    2.6989    0.9804 H   0  0  0  0  0  0  0  0  0  0  0  0
   -0.6330    0.6368    2.3515 C   0  0  0  0  0  0  0  0  0  0  0  0
    0.6487    0.3604    1.8127 C   0  0  0  0  0  0  0  0  0  0  0  0
    1.7879    0.3582    2.6376 C   0  0  0  0  0  0  0  0  0  0  0  0
    2.7721    0.1187    2.2062 H   0  0  0  0  0  0  0  0  0  0  0  0
    1.6596    0.6393    4.0066 C   0  0  0  0  0  0  0  0  0  0  0  0
    2.5487    0.6288    4.6552 H   0  0  0  0  0  0  0  0  0  0  0  0
    0.3952    0.9243    4.5474 C   0  0  0  0  0  0  0  0  0  0  0  0
    0.2923    1.1370    5.6225 H   0  0  0  0  0  0  0  0  0  0  0  0
   -0.7429    0.9285    3.7250 C   0  0  0  0  0  0  0  0  0  0  0  0
   -1.7344    1.1450    4.1515 H   0  0  0  0  0  0  0  0  0  0  0  0
    2.1586   -1.0575   -0.2015 C   0  0  0  0  0  0  0  0  0  0  0  0
    2.1398   -2.3333    0.4025 C   0  0  0  0  0  0  0  0  0  0  0  0
    1.2564   -2.6629    0.9676 H   0  0  0  0  0  0  0  0  0  0  0  0
    3.2433   -3.1880    0.2814 C   0  0  0  0  0  0  0  0  0  0  0  0
    3.2160   -4.1803    0.7565 H   0  0  0  0  0  0  0  0  0  0  0  0
    4.3734   -2.7856   -0.4503 C   0  0  0  0  0  0  0  0  0  0  0  0
    5.2362   -3.4615   -0.5503 H   0  0  0  0  0  0  0  0  0  0  0  0
    4.3960   -1.5201   -1.0546 C   0  0  0  0  0  0  0  0  0  0  0  0
    5.2780   -1.1969   -1.6285 H   0  0  0  0  0  0  0  0  0  0  0  0
    3.2962   -0.6557   -0.9291 C   0  0  0  0  0  0  0  0  0  0  0  0
    3.3264    0.3376   -1.3999 H   0  0  0  0  0  0  0  0  0  0  0  0
    1.2175    1.6084   -0.7671 C   0  0  0  0  0  0  0  0  0  0  0  0
    1.1204    1.7356   -2.1703 C   0  0  0  0  0  0  0  0  0  0  0  0
    0.7400    0.8929   -2.7686 H   0  0  0  0  0  0  0  0  0  0  0  0
    1.4929    2.9314   -2.7993 C   0  0  0  0  0  0  0  0  0  0  0  0
    1.4191    3.0175   -3.8942 H   0  0  0  0  0  0  0  0  0  0  0  0
    1.9466    4.0201   -2.0342 C   0  0  0  0  0  0  0  0  0  0  0  0
    2.2272    4.9629   -2.5279 H   0  0  0  0  0  0  0  0  0  0  0  0
    2.0349    3.9020   -0.6393 C   0  0  0  0  0  0  0  0  0  0  0  0
    2.3856    4.7523   -0.0343 H   0  0  0  0  0  0  0  0  0  0  0  0
    1.6788    2.6992   -0.0060 C   0  0  0  0  0  0  0  0  0  0  0  0
    1.7554    2.6119    1.0882 H   0  0  0  0  0  0  0  0  0  0  0  0
  1 17  1  0  0  0  0
  2  3  1  0  0  0  0
  2 16  1  1  0  0  0
  3  4  1  0  0  0  0
  5  6  1  0  0  0  0
  5  3  1  0  0  0  0
  7  5  1  0  0  0  0
  8  7  1  0  0  0  0
  9  7  2  0  0  0  0
  9 11  1  0  0  0  0
 10  9  1  0  0  0  0
 11 13  1  0  0  0  0
 12 11  1  0  0  0  0
 13 15  1  0  0  0  0
 13 14  1  0  0  0  0
 13  2  1  0  0  0  0
 16 24  1  0  0  0  0
 17 16  2  0  0  0  0
 17 18  1  0  0  0  0
 18 20  2  0  0  0  0
 19 18  1  0  0  0  0
 20 22  1  0  0  0  0
 20 21  1  0  0  0  0
 22 23  1  0  0  0  0
 24 25  1  0  0  0  0
 24 22  2  0  0  0  0
 26  1  1  0  0  0  0
 26 27  1  0  0  0  0
 27 28  1  0  0  0  0
 29 27  2  0  0  0  0
 29 30  1  0  0  0  0
 31 29  1  0  0  0  0
 32 31  1  0  0  0  0
 33 35  1  0  0  0  0
 33 31  2  0  0  0  0
 34 33  1  0  0  0  0
 35 26  2  0  0  0  0
 36 35  1  0  0  0  0
 37 46  1  0  0  0  0
 37  1  1  0  0  0  0
 38 37  2  0  0  0  0
 39 38  1  0  0  0  0
 40 38  1  0  0  0  0
 40 42  2  0  0  0  0
 41 40  1  0  0  0  0
 42 44  1  0  0  0  0
 43 42  1  0  0  0  0
 44 45  1  0  0  0  0
 44 46  2  0  0  0  0
 46 47  1  0  0  0  0
M  END
