2
 OpenBabel05122313113D

 30 31  0  0  1  0  0  0  0  0999 V2000
   -5.5801    3.2394    0.1581 O   0  0  0  0  0  0  0  0  0  0  0  0
   -1.0880    0.2591   -1.6260 C   0  0  2  0  0  3  0  0  0  0  0  0
    0.2923    0.6478   -1.5031 C   0  0  0  0  0  0  0  0  0  0  0  0
    0.6751    1.5718   -1.0553 H   0  0  0  0  0  0  0  0  0  0  0  0
    1.1171   -0.3476   -2.1023 C   0  0  0  0  0  0  0  0  0  0  0  0
    0.2500   -1.3840   -2.6006 C   0  0  0  0  0  0  0  0  0  0  0  0
   -1.0874   -1.0027   -2.3068 C   0  0  0  0  0  0  0  0  0  0  0  0
   -1.9745   -1.5898   -2.5673 H   0  0  0  0  0  0  0  0  0  0  0  0
    2.6037   -0.2927   -2.2787 C   0  0  0  0  0  0  0  0  0  0  0  0
    2.8560   -0.1593   -3.3525 H   0  0  0  0  0  0  0  0  0  0  0  0
    3.0868   -1.2299   -1.9377 H   0  0  0  0  0  0  0  0  0  0  0  0
    3.0487    0.5477   -1.7145 H   0  0  0  0  0  0  0  0  0  0  0  0
    0.6838   -2.5936   -3.3684 C   0  0  0  0  0  0  0  0  0  0  0  0
   -0.1474   -3.3154   -3.4809 H   0  0  0  0  0  0  0  0  0  0  0  0
    1.5204   -3.1113   -2.8582 H   0  0  0  0  0  0  0  0  0  0  0  0
    1.0306   -2.3065   -4.3840 H   0  0  0  0  0  0  0  0  0  0  0  0
   -2.2707    1.0105   -1.1722 C   0  0  0  0  0  0  0  0  0  0  0  0
   -2.1850    2.3871   -0.8462 C   0  0  0  0  0  0  0  0  0  0  0  0
   -1.2261    2.9142   -0.9626 H   0  0  0  0  0  0  0  0  0  0  0  0
   -3.2981    3.1013   -0.4027 C   0  0  0  0  0  0  0  0  0  0  0  0
   -3.2310    4.1703   -0.1542 H   0  0  0  0  0  0  0  0  0  0  0  0
   -4.5521    2.4627   -0.2787 C   0  0  0  0  0  0  0  0  0  0  0  0
   -4.6611    1.0958   -0.6095 C   0  0  0  0  0  0  0  0  0  0  0  0
   -5.6182    0.5657   -0.5171 H   0  0  0  0  0  0  0  0  0  0  0  0
   -3.5316    0.3891   -1.0437 C   0  0  0  0  0  0  0  0  0  0  0  0
   -3.6282   -0.6867   -1.2487 H   0  0  0  0  0  0  0  0  0  0  0  0
   -6.8566    2.6454    0.3007 C   0  0  0  0  0  0  0  0  0  0  0  0
   -7.2423    2.2523   -0.6668 H   0  0  0  0  0  0  0  0  0  0  0  0
   -7.5344    3.4413    0.6607 H   0  0  0  0  0  0  0  0  0  0  0  0
   -6.8476    1.8152    1.0426 H   0  0  0  0  0  0  0  0  0  0  0  0
  1 27  1  0  0  0  0
  2  3  1  0  0  0  0
  2 17  1  6  0  0  0
  3  4  1  0  0  0  0
  5  3  2  0  0  0  0
  6  7  2  0  0  0  0
  6  5  1  0  0  0  0
  7  2  1  0  0  0  0
  8  7  1  0  0  0  0
  9  5  1  0  0  0  0
  9 11  1  0  0  0  0
  9 12  1  0  0  0  0
 10  9  1  0  0  0  0
 13 15  1  0  0  0  0
 13  6  1  0  0  0  0
 14 13  1  0  0  0  0
 16 13  1  0  0  0  0
 17 25  2  0  0  0  0
 17 18  1  0  0  0  0
 18 20  2  0  0  0  0
 19 18  1  0  0  0  0
 20 22  1  0  0  0  0
 20 21  1  0  0  0  0
 22  1  1  0  0  0  0
 23 24  1  0  0  0  0
 23 22  2  0  0  0  0
 25 23  1  0  0  0  0
 26 25  1  0  0  0  0
 27 29  1  0  0  0  0
 27 30  1  0  0  0  0
 28 27  1  0  0  0  0
M  END
