9
 OpenBabel05122313113D

 40 41  0  0  1  0  0  0  0  0999 V2000
    1.3437   -3.4031   -0.5273 C   0  0  0  0  0  0  0  0  0  0  0  0
    1.6253   -3.1300   -1.5633 H   0  0  0  0  0  0  0  0  0  0  0  0
    1.0740   -4.4775   -0.5112 H   0  0  0  0  0  0  0  0  0  0  0  0
    2.2340   -3.2601    0.1176 H   0  0  0  0  0  0  0  0  0  0  0  0
    0.1693   -2.5714   -0.0496 C   0  0  0  0  0  0  0  0  0  0  0  0
   -0.7191   -2.6985   -0.6997 H   0  0  0  0  0  0  0  0  0  0  0  0
   -0.1318   -2.8401    0.9850 H   0  0  0  0  0  0  0  0  0  0  0  0
    0.5664   -1.1919   -0.0674 O   0  0  0  0  0  0  0  0  0  0  0  0
   -0.3178   -0.1819   -0.0222 C   0  0  0  0  0  3  0  0  0  0  0  0
    0.3236    1.0925    0.0073 C   0  0  0  0  0  0  0  0  0  0  0  0
   -0.3674    1.9391   -0.0647 H   0  0  0  0  0  0  0  0  0  0  0  0
    1.6967    1.4070    0.0909 C   0  0  1  0  0  3  0  0  0  0  0  0
    2.0932    2.7065   -0.0386 N   0  0  0  0  0  0  0  0  0  0  0  0
    1.1413    3.7911   -0.3285 C   0  0  0  0  0  0  0  0  0  0  0  0
    0.3830    3.8568    0.4855 H   0  0  0  0  0  0  0  0  0  0  0  0
    0.5898    3.5871   -1.2697 H   0  0  0  0  0  0  0  0  0  0  0  0
    2.0109    5.0510   -0.3752 C   0  0  0  0  0  0  0  0  0  0  0  0
    1.4391    5.9645   -0.1240 H   0  0  0  0  0  0  0  0  0  0  0  0
    2.4355    5.1886   -1.3917 H   0  0  0  0  0  0  0  0  0  0  0  0
    3.1259    4.7236    0.6260 C   0  0  0  0  0  0  0  0  0  0  0  0
    4.0248    5.3605    0.5178 H   0  0  0  0  0  0  0  0  0  0  0  0
    2.7532    4.8346    1.6659 H   0  0  0  0  0  0  0  0  0  0  0  0
    3.4144    3.2500    0.3247 C   0  0  0  0  0  0  0  0  0  0  0  0
    4.1272    3.1647   -0.5255 H   0  0  0  0  0  0  0  0  0  0  0  0
    3.8478    2.6867    1.1736 H   0  0  0  0  0  0  0  0  0  0  0  0
    2.7129    0.3742    0.3362 C   0  0  0  0  0  0  0  0  0  0  0  0
    2.4073   -0.4099    1.0421 H   0  0  0  0  0  0  0  0  0  0  0  0
    3.9086    0.2690   -0.3018 C   0  0  0  0  0  0  0  0  0  0  0  0
    4.1577    1.0016   -1.0878 H   0  0  0  0  0  0  0  0  0  0  0  0
    4.9058   -0.7845   -0.1030 C   0  0  0  0  0  0  0  0  0  0  0  0
    6.0356   -0.8302   -0.9552 C   0  0  0  0  0  0  0  0  0  0  0  0
    6.1394   -0.0685   -1.7441 H   0  0  0  0  0  0  0  0  0  0  0  0
    7.0100   -1.8268   -0.8153 C   0  0  0  0  0  0  0  0  0  0  0  0
    7.8776   -1.8429   -1.4921 H   0  0  0  0  0  0  0  0  0  0  0  0
    6.8788   -2.8023    0.1851 C   0  0  0  0  0  0  0  0  0  0  0  0
    7.6421   -3.5867    0.2984 H   0  0  0  0  0  0  0  0  0  0  0  0
    5.7665   -2.7689    1.0455 C   0  0  0  0  0  0  0  0  0  0  0  0
    5.6604   -3.5270    1.8363 H   0  0  0  0  0  0  0  0  0  0  0  0
    4.7937   -1.7741    0.9059 C   0  0  0  0  0  0  0  0  0  0  0  0
    3.9374   -1.7563    1.5963 H   0  0  0  0  0  0  0  0  0  0  0  0
  1  3  1  0  0  0  0
  1  5  1  0  0  0  0
  1  4  1  0  0  0  0
  2  1  1  0  0  0  0
  5  7  1  0  0  0  0
  6  5  1  0  0  0  0
  8  5  1  0  0  0  0
  8  9  1  0  0  0  0
  9 10  2  0  0  0  0
 11 10  1  0  0  0  0
 12 10  1  1  0  0  0
 12 26  1  0  0  0  0
 13 12  1  0  0  0  0
 13 23  1  0  0  0  0
 14 13  1  0  0  0  0
 14 15  1  0  0  0  0
 16 14  1  0  0  0  0
 17 14  1  0  0  0  0
 17 18  1  0  0  0  0
 17 20  1  0  0  0  0
 19 17  1  0  0  0  0
 20 22  1  0  0  0  0
 21 20  1  0  0  0  0
 23 20  1  0  0  0  0
 23 25  1  0  0  0  0
 24 23  1  0  0  0  0
 26 27  1  0  0  0  0
 28 30  1  0  0  0  0
 28 26  2  0  0  0  0
 29 28  1  0  0  0  0
 30 39  1  0  0  0  0
 31 33  1  0  0  0  0
 31 30  2  0  0  0  0
 32 31  1  0  0  0  0
 33 35  2  0  0  0  0
 34 33  1  0  0  0  0
 35 36  1  0  0  0  0
 35 37  1  0  0  0  0
 37 38  1  0  0  0  0
 39 37  2  0  0  0  0
 39 40  1  0  0  0  0
M  END
