3
 OpenBabel05122313113D

 48 49  0  0  1  0  0  0  0  0999 V2000
    3.3315    1.2344    0.1013 O   0  0  0  0  0  0  0  0  0  0  0  0
    2.5491   -0.9393   -0.6484 N   0  0  0  0  0  0  0  0  0  0  0  0
   -0.3536    1.0466   -0.1055 C   0  0  0  0  0  2  0  0  0  0  0  0
   -1.4002    2.1004   -0.0643 C   0  0  0  0  0  0  0  0  0  0  0  0
   -1.4642    3.1350   -1.0336 C   0  0  0  0  0  0  0  0  0  0  0  0
   -2.4948    4.0874   -1.0238 C   0  0  0  0  0  0  0  0  0  0  0  0
   -3.4898    4.0478   -0.0351 C   0  0  0  0  0  0  0  0  0  0  0  0
   -3.4459    3.0352    0.9389 C   0  0  0  0  0  0  0  0  0  0  0  0
   -2.4270    2.0749    0.9150 C   0  0  0  0  0  0  0  0  0  0  0  0
    0.9636    1.3062   -0.3641 C   0  0  1  0  0  3  0  0  0  0  0  0
    1.5505    2.7140   -0.5041 C   0  0  0  0  0  0  0  0  0  0  0  0
    2.9738    2.6387    0.1139 C   0  0  0  0  0  0  0  0  0  0  0  0
    2.9978    3.1374    1.5618 C   0  0  0  0  0  0  0  0  0  0  0  0
    4.0149    3.3791   -0.7286 C   0  0  0  0  0  0  0  0  0  0  0  0
    1.5625   -1.7484   -1.3822 C   0  0  0  0  0  0  0  0  0  0  0  0
    1.3519   -3.1515   -0.8018 C   0  0  0  0  0  0  0  0  0  0  0  0
    1.8695   -1.8035   -2.8869 C   0  0  0  0  0  0  0  0  0  0  0  0
    3.9146   -1.5029   -0.5421 C   0  0  0  0  0  0  0  0  0  0  0  0
    4.9392   -0.7977   -1.4466 C   0  0  0  0  0  0  0  0  0  0  0  0
    4.3849   -1.5540    0.9177 C   0  0  0  0  0  0  0  0  0  0  0  0
    2.2709    0.4166   -0.3109 B   0  0  0  0  0  0  0  0  0  0  0  0
   -0.7006    3.1771   -1.8234 H   0  0  0  0  0  0  0  0  0  0  0  0
   -2.5202    4.8677   -1.8003 H   0  0  0  0  0  0  0  0  0  0  0  0
   -4.2977    4.7949   -0.0268 H   0  0  0  0  0  0  0  0  0  0  0  0
   -4.2214    2.9857    1.7189 H   0  0  0  0  0  0  0  0  0  0  0  0
   -2.4232    1.2599    1.6541 H   0  0  0  0  0  0  0  0  0  0  0  0
    0.9378    3.5044   -0.0257 H   0  0  0  0  0  0  0  0  0  0  0  0
    1.6409    2.9872   -1.5800 H   0  0  0  0  0  0  0  0  0  0  0  0
    3.9727    2.8966    2.0310 H   0  0  0  0  0  0  0  0  0  0  0  0
    2.8496    4.2352    1.6030 H   0  0  0  0  0  0  0  0  0  0  0  0
    2.1964    2.6609    2.1565 H   0  0  0  0  0  0  0  0  0  0  0  0
    3.7687    4.4582   -0.7966 H   0  0  0  0  0  0  0  0  0  0  0  0
    5.0247    3.2784   -0.2822 H   0  0  0  0  0  0  0  0  0  0  0  0
    4.0462    2.9619   -1.7549 H   0  0  0  0  0  0  0  0  0  0  0  0
    0.5980   -1.2097   -1.2471 H   0  0  0  0  0  0  0  0  0  0  0  0
    2.2386   -3.8055   -0.9327 H   0  0  0  0  0  0  0  0  0  0  0  0
    0.4981   -3.6468   -1.3043 H   0  0  0  0  0  0  0  0  0  0  0  0
    1.1015   -3.1006    0.2726 H   0  0  0  0  0  0  0  0  0  0  0  0
    2.8102   -2.3547   -3.0965 H   0  0  0  0  0  0  0  0  0  0  0  0
    1.9728   -0.7822   -3.3061 H   0  0  0  0  0  0  0  0  0  0  0  0
    1.0584   -2.3261   -3.4354 H   0  0  0  0  0  0  0  0  0  0  0  0
    3.8426   -2.5528   -0.8948 H   0  0  0  0  0  0  0  0  0  0  0  0
    5.9114   -1.3314   -1.4161 H   0  0  0  0  0  0  0  0  0  0  0  0
    5.0997    0.2451   -1.1153 H   0  0  0  0  0  0  0  0  0  0  0  0
    4.5924   -0.7782   -2.4983 H   0  0  0  0  0  0  0  0  0  0  0  0
    5.3812   -2.0351    0.9949 H   0  0  0  0  0  0  0  0  0  0  0  0
    4.4591   -0.5310    1.3349 H   0  0  0  0  0  0  0  0  0  0  0  0
    3.6741   -2.1360    1.5381 H   0  0  0  0  0  0  0  0  0  0  0  0
  1 12  1  0  0  0  0
  2 18  1  0  0  0  0
  2 21  1  0  0  0  0
  3  4  1  0  0  0  0
  4  9  1  0  0  0  0
  5  6  1  0  0  0  0
  5  4  2  0  0  0  0
  6  7  2  0  0  0  0
  7 24  1  0  0  0  0
  7  8  1  0  0  0  0
  8 25  1  0  0  0  0
  9  8  2  0  0  0  0
  9 26  1  0  0  0  0
 10 21  1  0  0  0  0
 10  3  1  1  0  0  0
 11 10  1  0  0  0  0
 11 27  1  0  0  0  0
 11 12  1  0  0  0  0
 12 13  1  0  0  0  0
 13 30  1  0  0  0  0
 13 29  1  0  0  0  0
 13 31  1  0  0  0  0
 14 33  1  0  0  0  0
 14 12  1  0  0  0  0
 15 35  1  0  0  0  0
 15 16  1  0  0  0  0
 15  2  1  0  0  0  0
 16 38  1  0  0  0  0
 17 15  1  0  0  0  0
 18 20  1  0  0  0  0
 19 43  1  0  0  0  0
 19 44  1  0  0  0  0
 19 18  1  0  0  0  0
 20 46  1  0  0  0  0
 20 47  1  0  0  0  0
 20 48  1  0  0  0  0
 21  1  1  0  0  0  0
 22  5  1  0  0  0  0
 23  6  1  0  0  0  0
 28 11  1  0  0  0  0
 32 14  1  0  0  0  0
 34 14  1  0  0  0  0
 36 16  1  0  0  0  0
 37 16  1  0  0  0  0
 39 17  1  0  0  0  0
 40 17  1  0  0  0  0
 41 17  1  0  0  0  0
 42 18  1  0  0  0  0
 45 19  1  0  0  0  0
M  END
