7
 OpenBabel05122313113D

 10  9  0  0  1  0  0  0  0  0999 V2000
    1.7995    0.5051   -1.6292 F   0  0  0  0  0  0  0  0  0  0  0  0
    3.9226    1.1056   -0.0395 F   0  0  0  0  0  0  0  0  0  0  0  0
    4.3715   -0.5115   -1.4270 F   0  0  0  0  0  0  0  0  0  0  0  0
    4.0399   -0.9576    0.6843 F   0  0  0  0  0  0  0  0  0  0  0  0
    1.6507    0.7350    1.4211 F   0  0  0  0  0  0  0  0  0  0  0  0
    1.3908   -1.4291    1.3372 F   0  0  0  0  0  0  0  0  0  0  0  0
    1.1770   -0.2713    0.5661 C   0  0  0  0  0  3  0  0  0  0  0  0
    3.6372   -0.1779   -0.3381 C   0  0  0  0  0  0  0  0  0  0  0  0
    2.1431   -0.3956   -0.6295 C   0  0  2  0  0  0  0  0  0  0  0  0
    2.0425   -1.4255   -1.0307 H   0  0  0  0  0  0  0  0  0  0  0  0
  1  9  1  0  0  0  0
  3  8  1  0  0  0  0
  7  6  1  0  0  0  0
  7  5  1  0  0  0  0
  8  2  1  0  0  0  0
  8  4  1  0  0  0  0
  9 10  1  6  0  0  0
  9  8  1  0  0  0  0
  9  7  1  0  0  0  0
M  END
