4
 OpenBabel05122313113D

 53 55  0  0  0  0  0  0  0  0999 V2000
   -4.5379   -1.8923    0.4411 O   0  0  0  0  0  0  0  0  0  0  0  0
   -1.5433    1.2772   -0.7535 N   0  0  0  0  0  0  0  0  0  0  0  0
   -2.4520    0.0436    0.8164 N   0  0  0  0  0  0  0  0  0  0  0  0
   -1.3398    0.1743    0.0282 C   0  0  0  0  0  2  0  0  0  0  0  0
   -2.7937    1.8387   -0.4890 C   0  0  0  0  0  0  0  0  0  0  0  0
   -3.4626    2.9528   -1.0170 C   0  0  0  0  0  0  0  0  0  0  0  0
   -3.0151    3.5759   -1.8037 H   0  0  0  0  0  0  0  0  0  0  0  0
   -4.7399    3.2349   -0.5091 C   0  0  0  0  0  0  0  0  0  0  0  0
   -5.2943    4.0996   -0.9026 H   0  0  0  0  0  0  0  0  0  0  0  0
   -5.3339    2.4231    0.4824 C   0  0  0  0  0  0  0  0  0  0  0  0
   -6.3452    2.6646    0.8417 H   0  0  0  0  0  0  0  0  0  0  0  0
   -4.6693    1.3057    1.0086 C   0  0  0  0  0  0  0  0  0  0  0  0
   -5.1454    0.6479    1.7471 H   0  0  0  0  0  0  0  0  0  0  0  0
   -3.3866    1.0343    0.5153 C   0  0  0  0  0  0  0  0  0  0  0  0
   -2.6802   -1.0937    1.7016 C   0  0  0  0  0  0  0  0  0  0  0  0
   -3.3482   -0.7641    2.5224 H   0  0  0  0  0  0  0  0  0  0  0  0
   -1.7020   -1.3836    2.1327 H   0  0  0  0  0  0  0  0  0  0  0  0
   -3.2786   -2.2749    0.9508 C   0  0  0  0  0  0  0  0  0  0  0  0
   -2.5803   -2.5565    0.1265 H   0  0  0  0  0  0  0  0  0  0  0  0
   -3.3623   -3.1469    1.6490 H   0  0  0  0  0  0  0  0  0  0  0  0
   -4.9713   -2.7049   -0.6295 C   0  0  0  0  0  0  0  0  0  0  0  0
   -5.9254   -2.2833   -1.0013 H   0  0  0  0  0  0  0  0  0  0  0  0
   -5.1523   -3.7604   -0.3096 H   0  0  0  0  0  0  0  0  0  0  0  0
   -4.2274   -2.7154   -1.4601 H   0  0  0  0  0  0  0  0  0  0  0  0
   -0.6348    1.7350   -1.8144 C   0  0  0  0  0  0  0  0  0  0  0  0
   -0.9687    2.7565   -2.0893 H   0  0  0  0  0  0  0  0  0  0  0  0
   -0.8064    1.0870   -2.6921 H   0  0  0  0  0  0  0  0  0  0  0  0
    0.8301    1.7413   -1.4213 C   0  0  0  0  0  0  0  0  0  0  0  0
    1.7750    1.0570   -2.2332 C   0  0  0  0  0  0  0  0  0  0  0  0
    3.1377    1.0393   -1.8321 C   0  0  0  0  0  0  0  0  0  0  0  0
    3.5089    1.6222   -0.5919 C   0  0  0  0  0  0  0  0  0  0  0  0
    2.5673    2.3453    0.1802 C   0  0  0  0  0  0  0  0  0  0  0  0
    1.2304    2.4583   -0.2683 C   0  0  0  0  0  0  0  0  0  0  0  0
    1.3015    0.3670   -3.4946 C   0  0  0  0  0  0  0  0  0  0  0  0
    2.1158   -0.1506   -4.0292 H   0  0  0  0  0  0  0  0  0  0  0  0
    0.8512    1.0812   -4.2156 H   0  0  0  0  0  0  0  0  0  0  0  0
    0.5343   -0.4041   -3.2598 H   0  0  0  0  0  0  0  0  0  0  0  0
    4.2158    0.4076   -2.6898 C   0  0  0  0  0  0  0  0  0  0  0  0
    5.1030    1.0670   -2.7668 H   0  0  0  0  0  0  0  0  0  0  0  0
    3.8763    0.2084   -3.7205 H   0  0  0  0  0  0  0  0  0  0  0  0
    4.5779   -0.5599   -2.2768 H   0  0  0  0  0  0  0  0  0  0  0  0
    4.9138    1.4850   -0.0526 C   0  0  0  0  0  0  0  0  0  0  0  0
    4.8944    1.0734    0.9785 H   0  0  0  0  0  0  0  0  0  0  0  0
    5.4279    2.4678    0.0199 H   0  0  0  0  0  0  0  0  0  0  0  0
    5.5513    0.8226   -0.6626 H   0  0  0  0  0  0  0  0  0  0  0  0
    3.0204    2.9519    1.4852 C   0  0  0  0  0  0  0  0  0  0  0  0
    2.2258    3.5218    1.9949 H   0  0  0  0  0  0  0  0  0  0  0  0
    3.8914    3.6272    1.3502 H   0  0  0  0  0  0  0  0  0  0  0  0
    3.3392    2.1546    2.1891 H   0  0  0  0  0  0  0  0  0  0  0  0
    0.2347    3.2968    0.4985 C   0  0  0  0  0  0  0  0  0  0  0  0
   -0.6075    3.6380   -0.1313 H   0  0  0  0  0  0  0  0  0  0  0  0
    0.7091    4.2046    0.9164 H   0  0  0  0  0  0  0  0  0  0  0  0
   -0.2048    2.7378    1.3521 H   0  0  0  0  0  0  0  0  0  0  0  0
  1 18  1  0  0  0  0
  2  5  1  0  0  0  0
  2  4  1  0  0  0  0
  3 15  1  0  0  0  0
  4  3  1  0  0  0  0
  5 14  1  0  0  0  0
  6  8  1  0  0  0  0
  6  5  2  0  0  0  0
  7  6  1  0  0  0  0
  8 10  2  0  0  0  0
  9  8  1  0  0  0  0
 10 11  1  0  0  0  0
 10 12  1  0  0  0  0
 12 13  1  0  0  0  0
 14  3  1  0  0  0  0
 14 12  2  0  0  0  0
 15 17  1  0  0  0  0
 15 16  1  0  0  0  0
 18 20  1  0  0  0  0
 18 15  1  0  0  0  0
 19 18  1  0  0  0  0
 21 23  1  0  0  0  0
 21  1  1  0  0  0  0
 22 21  1  0  0  0  0
 24 21  1  0  0  0  0
 25 28  1  0  0  0  0
 25  2  1  0  0  0  0
 26 25  1  0  0  0  0
 27 25  1  0  0  0  0
 28 33  1  0  0  0  0
 29 30  1  0  0  0  0
 29 28  2  0  0  0  0
 30 31  2  0  0  0  0
 31 42  1  0  0  0  0
 31 32  1  0  0  0  0
 32 46  1  0  0  0  0
 33 32  2  0  0  0  0
 33 50  1  0  0  0  0
 34 37  1  0  0  0  0
 34 29  1  0  0  0  0
 35 34  1  0  0  0  0
 36 34  1  0  0  0  0
 38 41  1  0  0  0  0
 38 30  1  0  0  0  0
 39 38  1  0  0  0  0
 40 38  1  0  0  0  0
 42 44  1  0  0  0  0
 42 43  1  0  0  0  0
 45 42  1  0  0  0  0
 46 47  1  0  0  0  0
 46 49  1  0  0  0  0
 48 46  1  0  0  0  0
 50 52  1  0  0  0  0
 50 53  1  0  0  0  0
 51 50  1  0  0  0  0
M  END
