1
 OpenBabel05122313113D

 23 24  0  0  0  0  0  0  0  0999 V2000
   -1.4004    0.0437   -0.0649 C   0  0  0  0  0  1  0  0  0  0  0  0
   -2.6426    0.0445   -0.0721 C   0  0  0  0  0  2  0  0  0  0  0  0
   -4.0672    0.0460   -0.0794 C   0  0  0  0  0  0  0  0  0  0  0  0
   -4.8005   -0.7883   -0.9643 C   0  0  0  0  0  0  0  0  0  0  0  0
   -6.1967   -0.7839   -0.9660 C   0  0  0  0  0  0  0  0  0  0  0  0
   -6.9340    0.0497   -0.0922 C   0  0  0  0  0  0  0  0  0  0  0  0
   -6.2024    0.8815    0.7881 C   0  0  0  0  0  0  0  0  0  0  0  0
   -4.8063    0.8822    0.7988 C   0  0  0  0  0  0  0  0  0  0  0  0
   -8.4166    0.0516   -0.0986 C   0  0  0  0  0  0  0  0  0  0  0  0
   -9.1477   -1.1276   -0.3758 C   0  0  0  0  0  0  0  0  0  0  0  0
  -10.5489   -1.1261   -0.3824 C   0  0  0  0  0  0  0  0  0  0  0  0
  -11.2577    0.0551   -0.1104 C   0  0  0  0  0  0  0  0  0  0  0  0
  -10.5482    1.2345    0.1674 C   0  0  0  0  0  0  0  0  0  0  0  0
   -9.1471    1.2326    0.1724 C   0  0  0  0  0  0  0  0  0  0  0  0
   -4.2477   -1.4357   -1.6604 H   0  0  0  0  0  0  0  0  0  0  0  0
   -6.7339   -1.4223   -1.6838 H   0  0  0  0  0  0  0  0  0  0  0  0
   -6.7444    1.5213    1.5010 H   0  0  0  0  0  0  0  0  0  0  0  0
   -4.2581    1.5283    1.4997 H   0  0  0  0  0  0  0  0  0  0  0  0
   -8.6049   -2.0665   -0.5619 H   0  0  0  0  0  0  0  0  0  0  0  0
  -11.0932   -2.0597   -0.5924 H   0  0  0  0  0  0  0  0  0  0  0  0
  -12.3583    0.0565   -0.1149 H   0  0  0  0  0  0  0  0  0  0  0  0
  -11.0919    2.1696    0.3729 H   0  0  0  0  0  0  0  0  0  0  0  0
   -8.6034    2.1701    0.3629 H   0  0  0  0  0  0  0  0  0  0  0  0
  2  1  1  0  0  0  0
  3  2  1  0  0  0  0
  3  8  1  0  0  0  0
  4  3  2  0  0  0  0
  5  4  1  0  0  0  0
  5  6  2  0  0  0  0
  6  7  1  0  0  0  0
  7  8  2  0  0  0  0
  7 17  1  0  0  0  0
  8 18  1  0  0  0  0
  9  6  1  0  0  0  0
  9 14  1  0  0  0  0
 10  9  2  0  0  0  0
 11 10  1  0  0  0  0
 11 12  2  0  0  0  0
 12 13  1  0  0  0  0
 13 14  2  0  0  0  0
 13 22  1  0  0  0  0
 14 23  1  0  0  0  0
 15  4  1  0  0  0  0
 16  5  1  0  0  0  0
 19 10  1  0  0  0  0
 20 11  1  0  0  0  0
 21 12  1  0  0  0  0
M  END
