5
 OpenBabel05122313113D

 25 26  0  0  0  0  0  0  0  0999 V2000
    4.4203   -0.5784   -0.5179 O   0  0  0  0  0  0  0  0  0  0  0  0
    1.3696   -2.1463   -0.1830 N   0  0  0  0  0  0  0  0  0  0  0  0
    3.2551   -0.9157   -0.4003 C   0  0  0  0  0  0  0  0  0  0  0  0
    2.7346   -2.2033   -0.4602 N   0  0  0  0  0  0  0  0  0  0  0  0
    0.9584   -0.8679   -0.0459 C   0  0  0  0  0  2  0  0  0  0  0  0
    2.1079   -0.1085   -0.1614 N   0  0  0  0  0  0  0  0  0  0  0  0
    0.5270   -3.3163   -0.2715 C   0  0  0  0  0  0  0  0  0  0  0  0
   -0.4988   -2.9554   -0.0546 H   0  0  0  0  0  0  0  0  0  0  0  0
    0.8166   -4.0750    0.4820 H   0  0  0  0  0  0  0  0  0  0  0  0
    0.5626   -3.7590   -1.2887 H   0  0  0  0  0  0  0  0  0  0  0  0
    3.5272   -3.3984   -0.3130 C   0  0  0  0  0  0  0  0  0  0  0  0
    3.2362   -4.1749   -1.0477 H   0  0  0  0  0  0  0  0  0  0  0  0
    3.4655   -3.8151    0.7154 H   0  0  0  0  0  0  0  0  0  0  0  0
    4.5711   -3.0876   -0.5106 H   0  0  0  0  0  0  0  0  0  0  0  0
    2.1730    1.3051    0.0330 C   0  0  0  0  0  0  0  0  0  0  0  0
    2.9388    2.0937   -0.8421 C   0  0  0  0  0  0  0  0  0  0  0  0
    3.5093    1.6166   -1.6499 H   0  0  0  0  0  0  0  0  0  0  0  0
    1.4593    1.8874    1.0964 C   0  0  0  0  0  0  0  0  0  0  0  0
    0.8925    1.2469    1.7896 H   0  0  0  0  0  0  0  0  0  0  0  0
    1.4861    3.2808    1.2522 C   0  0  0  0  0  0  0  0  0  0  0  0
    0.9230    3.7399    2.0787 H   0  0  0  0  0  0  0  0  0  0  0  0
    2.2338    4.0821    0.3741 C   0  0  0  0  0  0  0  0  0  0  0  0
    2.2535    5.1746    0.5044 H   0  0  0  0  0  0  0  0  0  0  0  0
    2.9673    3.4845   -0.6634 C   0  0  0  0  0  0  0  0  0  0  0  0
    3.5641    4.1055   -1.3480 H   0  0  0  0  0  0  0  0  0  0  0  0
  1  3  2  0  0  0  0
  2  5  1  0  0  0  0
  3  6  1  0  0  0  0
  4  3  1  0  0  0  0
  4 11  1  0  0  0  0
  4  2  1  0  0  0  0
  6  5  1  0  0  0  0
  6 15  1  0  0  0  0
  7  2  1  0  0  0  0
  7  8  1  0  0  0  0
  7  9  1  0  0  0  0
 10  7  1  0  0  0  0
 11 13  1  0  0  0  0
 12 11  1  0  0  0  0
 14 11  1  0  0  0  0
 15 18  1  0  0  0  0
 16 24  1  0  0  0  0
 16 15  2  0  0  0  0
 17 16  1  0  0  0  0
 18 20  2  0  0  0  0
 18 19  1  0  0  0  0
 20 21  1  0  0  0  0
 22 23  1  0  0  0  0
 22 20  1  0  0  0  0
 24 22  2  0  0  0  0
 25 24  1  0  0  0  0
M  END
