2
 OpenBabel05122313113D

 47 50  0  0  0  0  0  0  0  0999 V2000
    1.9863    0.5927    0.0840 P   0  0  0  0  0  4  0  0  0  0  0  0
    1.1505   -0.5230   -1.0624 C   0  0  0  0  0  3  0  0  0  0  0  0
    1.3527   -0.0586   -2.0533 H   0  0  0  0  0  0  0  0  0  0  0  0
    1.7528   -1.9022   -1.0200 C   0  0  0  0  0  0  0  0  0  0  0  0
    2.5751   -2.3562   -2.0756 C   0  0  0  0  0  0  0  0  0  0  0  0
    2.7453   -1.6986   -2.9427 H   0  0  0  0  0  0  0  0  0  0  0  0
    3.1810   -3.6206   -2.0308 C   0  0  0  0  0  0  0  0  0  0  0  0
    3.8115   -3.9524   -2.8701 H   0  0  0  0  0  0  0  0  0  0  0  0
    2.9924   -4.4548   -0.9181 C   0  0  0  0  0  0  0  0  0  0  0  0
    3.4712   -5.4448   -0.8779 H   0  0  0  0  0  0  0  0  0  0  0  0
    2.1713   -4.0204    0.1368 C   0  0  0  0  0  0  0  0  0  0  0  0
    1.9988   -4.6734    1.0061 H   0  0  0  0  0  0  0  0  0  0  0  0
    1.5498   -2.7654    0.0825 C   0  0  0  0  0  0  0  0  0  0  0  0
    0.8856   -2.4460    0.8988 H   0  0  0  0  0  0  0  0  0  0  0  0
    1.7912    0.1521    1.8453 C   0  0  0  0  0  0  0  0  0  0  0  0
    0.4949   -0.0713    2.3549 C   0  0  0  0  0  0  0  0  0  0  0  0
   -0.3807   -0.0366    1.6825 H   0  0  0  0  0  0  0  0  0  0  0  0
    0.3164   -0.3632    3.7127 C   0  0  0  0  0  0  0  0  0  0  0  0
   -0.7019   -0.5470    4.0864 H   0  0  0  0  0  0  0  0  0  0  0  0
    1.4252   -0.4221    4.5731 C   0  0  0  0  0  0  0  0  0  0  0  0
    1.2843   -0.6543    5.6397 H   0  0  0  0  0  0  0  0  0  0  0  0
    2.7144   -0.1815    4.0724 C   0  0  0  0  0  0  0  0  0  0  0  0
    3.5852   -0.2208    4.7439 H   0  0  0  0  0  0  0  0  0  0  0  0
    2.9031    0.1083    2.7120 C   0  0  0  0  0  0  0  0  0  0  0  0
    3.9159    0.2975    2.3285 H   0  0  0  0  0  0  0  0  0  0  0  0
    3.7811    0.6432   -0.2593 C   0  0  0  0  0  0  0  0  0  0  0  0
    4.5419   -0.5389   -0.0971 C   0  0  0  0  0  0  0  0  0  0  0  0
    4.0793   -1.4474    0.3156 H   0  0  0  0  0  0  0  0  0  0  0  0
    5.8941   -0.5533   -0.4662 C   0  0  0  0  0  0  0  0  0  0  0  0
    6.4791   -1.4763   -0.3387 H   0  0  0  0  0  0  0  0  0  0  0  0
    6.4953    0.5978   -1.0005 C   0  0  0  0  0  0  0  0  0  0  0  0
    7.5571    0.5807   -1.2893 H   0  0  0  0  0  0  0  0  0  0  0  0
    5.7410    1.7698   -1.1674 C   0  0  0  0  0  0  0  0  0  0  0  0
    6.2086    2.6738   -1.5857 H   0  0  0  0  0  0  0  0  0  0  0  0
    4.3871    1.7956   -0.8014 C   0  0  0  0  0  0  0  0  0  0  0  0
    3.7983    2.7149   -0.9365 H   0  0  0  0  0  0  0  0  0  0  0  0
    1.3708    2.2961   -0.1054 C   0  0  0  0  0  0  0  0  0  0  0  0
    1.6620    3.2356    0.9048 C   0  0  0  0  0  0  0  0  0  0  0  0
    2.2160    2.9249    1.8039 H   0  0  0  0  0  0  0  0  0  0  0  0
    1.2313    4.5627    0.7680 C   0  0  0  0  0  0  0  0  0  0  0  0
    1.4536    5.2928    1.5604 H   0  0  0  0  0  0  0  0  0  0  0  0
    0.5080    4.9531   -0.3706 C   0  0  0  0  0  0  0  0  0  0  0  0
    0.1626    5.9930   -0.4722 H   0  0  0  0  0  0  0  0  0  0  0  0
    0.2140    4.0161   -1.3738 C   0  0  0  0  0  0  0  0  0  0  0  0
   -0.3651    4.3158   -2.2597 H   0  0  0  0  0  0  0  0  0  0  0  0
    0.6425    2.6868   -1.2464 C   0  0  0  0  0  0  0  0  0  0  0  0
    0.3806    1.9515   -2.0206 H   0  0  0  0  0  0  0  0  0  0  0  0
  1 15  1  0  0  0  0
  2  4  1  0  0  0  0
  2  1  1  0  0  0  0
  3  2  1  0  0  0  0
  4 13  1  0  0  0  0
  5  7  1  0  0  0  0
  5  4  2  0  0  0  0
  6  5  1  0  0  0  0
  7  9  2  0  0  0  0
  8  7  1  0  0  0  0
  9 10  1  0  0  0  0
  9 11  1  0  0  0  0
 11 12  1  0  0  0  0
 13 11  2  0  0  0  0
 13 14  1  0  0  0  0
 15 16  2  0  0  0  0
 15 24  1  0  0  0  0
 16 18  1  0  0  0  0
 17 16  1  0  0  0  0
 18 19  1  0  0  0  0
 18 20  2  0  0  0  0
 20 21  1  0  0  0  0
 22 20  1  0  0  0  0
 22 23  1  0  0  0  0
 24 22  2  0  0  0  0
 25 24  1  0  0  0  0
 26 27  1  0  0  0  0
 26  1  1  0  0  0  0
 27 28  1  0  0  0  0
 29 30  1  0  0  0  0
 29 27  2  0  0  0  0
 31 29  1  0  0  0  0
 32 31  1  0  0  0  0
 33 31  2  0  0  0  0
 33 35  1  0  0  0  0
 34 33  1  0  0  0  0
 35 26  2  0  0  0  0
 36 35  1  0  0  0  0
 37  1  1  0  0  0  0
 37 38  1  0  0  0  0
 38 39  1  0  0  0  0
 40 38  2  0  0  0  0
 40 41  1  0  0  0  0
 42 40  1  0  0  0  0
 43 42  1  0  0  0  0
 44 46  1  0  0  0  0
 44 42  2  0  0  0  0
 45 44  1  0  0  0  0
 46 37  2  0  0  0  0
 47 46  1  0  0  0  0
M  END
