10
 OpenBabel05122313113D

 31 31  0  0  0  0  0  0  0  0999 V2000
    0.8944    1.8710   -0.8079 S   0  0  0  0  0  0  0  0  0  0  0  0
    1.4087    4.4560   -1.0163 F   0  0  0  0  0  0  0  0  0  0  0  0
    3.1429    3.1829   -1.3811 F   0  0  0  0  0  0  0  0  0  0  0  0
    2.4215    3.4982    0.6622 F   0  0  0  0  0  0  0  0  0  0  0  0
   -0.2908    2.2548   -0.0135 O   0  0  0  0  0  0  0  0  0  0  0  0
    0.8179    1.6569   -2.2666 O   0  0  0  0  0  0  0  0  0  0  0  0
    4.4972    1.0539    0.0736 O   0  0  0  0  0  0  0  0  0  0  0  0
    4.8552   -0.7828   -1.2183 O   0  0  0  0  0  0  0  0  0  0  0  0
    1.6749    0.5931   -0.0895 N   0  0  0  0  0  0  0  0  0  0  0  0
    0.3650   -0.7011    1.5910 C   0  0  0  0  0  3  0  0  0  0  0  0
    0.3314   -1.2391    2.8965 C   0  0  0  0  0  0  0  0  0  0  0  0
   -0.4399   -1.9839    3.1507 H   0  0  0  0  0  0  0  0  0  0  0  0
    1.2596   -0.8513    3.8770 C   0  0  0  0  0  0  0  0  0  0  0  0
    1.2026   -1.2888    4.8863 H   0  0  0  0  0  0  0  0  0  0  0  0
    2.2556    0.0897    3.5708 C   0  0  0  0  0  0  0  0  0  0  0  0
    2.9771    0.4112    4.3367 H   0  0  0  0  0  0  0  0  0  0  0  0
    2.3466    0.5969    2.2680 C   0  0  0  0  0  0  0  0  0  0  0  0
    3.1433    1.2959    1.9801 H   0  0  0  0  0  0  0  0  0  0  0  0
    1.4299    0.1839    1.2797 C   0  0  0  0  0  0  0  0  0  0  0  0
    2.0603    3.3543   -0.6176 C   0  0  0  0  0  0  0  0  0  0  0  0
    2.6151   -0.1721   -0.8973 C   0  0  0  0  0  0  0  0  0  0  0  0
    2.4219    0.0272   -1.9708 H   0  0  0  0  0  0  0  0  0  0  0  0
    2.4079   -1.2556   -0.7592 H   0  0  0  0  0  0  0  0  0  0  0  0
    4.0769    0.1299   -0.5985 C   0  0  0  0  0  0  0  0  0  0  0  0
    6.2837   -0.6414   -1.0362 C   0  0  0  0  0  0  0  0  0  0  0  0
    6.5377    0.4381   -1.0410 H   0  0  0  0  0  0  0  0  0  0  0  0
    6.7272   -1.1257   -1.9278 H   0  0  0  0  0  0  0  0  0  0  0  0
    6.7432   -1.3044    0.2516 C   0  0  0  0  0  0  0  0  0  0  0  0
    7.8479   -1.2524    0.3319 H   0  0  0  0  0  0  0  0  0  0  0  0
    6.4424   -2.3704    0.2785 H   0  0  0  0  0  0  0  0  0  0  0  0
    6.3094   -0.7896    1.1309 H   0  0  0  0  0  0  0  0  0  0  0  0
  1 20  1  0  0  0  0
  1  9  1  0  0  0  0
  1  5  2  0  0  0  0
  2 20  1  0  0  0  0
  3 20  1  0  0  0  0
  6  1  2  0  0  0  0
  8 25  1  0  0  0  0
  8 24  1  0  0  0  0
  9 19  1  0  0  0  0
 10 11  1  0  0  0  0
 11 12  1  0  0  0  0
 11 13  2  0  0  0  0
 13 14  1  0  0  0  0
 15 13  1  0  0  0  0
 15 16  1  0  0  0  0
 17 15  2  0  0  0  0
 18 17  1  0  0  0  0
 19 10  2  0  0  0  0
 19 17  1  0  0  0  0
 20  4  1  0  0  0  0
 21 23  1  0  0  0  0
 21 24  1  0  0  0  0
 21  9  1  0  0  0  0
 22 21  1  0  0  0  0
 24  7  2  0  0  0  0
 25 28  1  0  0  0  0
 26 25  1  0  0  0  0
 27 25  1  0  0  0  0
 28 30  1  0  0  0  0
 28 29  1  0  0  0  0
 28 31  1  0  0  0  0
M  END
