6
 OpenBabel05122313113D

 14 14  0  0  0  0  0  0  0  0999 V2000
    3.0924    0.8052    0.6977 O   0  0  0  0  0  0  0  0  0  0  0  0
    1.8991    0.0710   -1.5271 C   0  0  0  0  0  0  0  0  0  0  0  0
    1.7459    0.9948   -2.1054 H   0  0  0  0  0  0  0  0  0  0  0  0
    1.4999   -1.2005   -2.0544 C   0  0  0  0  0  0  0  0  0  0  0  0
    1.0533   -1.3803   -3.0448 H   0  0  0  0  0  0  0  0  0  0  0  0
    1.7132   -2.2328   -1.0689 C   0  0  0  0  0  3  0  0  0  0  0  0
    1.4362   -3.2884   -1.2130 H   0  0  0  0  0  0  0  0  0  0  0  0
    2.2510   -1.6670    0.1340 C   0  0  0  0  0  0  0  0  0  0  0  0
    2.3701   -2.2777    1.0392 H   0  0  0  0  0  0  0  0  0  0  0  0
    3.5193    0.4327    1.9987 C   0  0  0  0  0  0  0  0  0  0  0  0
    3.9818    1.3159    2.4837 H   0  0  0  0  0  0  0  0  0  0  0  0
    4.2750   -0.3822    1.9585 H   0  0  0  0  0  0  0  0  0  0  0  0
    2.6654    0.0890    2.6222 H   0  0  0  0  0  0  0  0  0  0  0  0
    2.5305   -0.1627   -0.1252 B   0  0  0  0  0  0  0  0  0  0  0  0
  1 10  1  0  0  0  0
  2 14  1  0  0  0  0
  3  2  1  0  0  0  0
  4  2  2  0  0  0  0
  4  6  1  0  0  0  0
  5  4  1  0  0  0  0
  6  8  1  0  0  0  0
  7  6  1  0  0  0  0
  8  9  1  0  0  0  0
 10 11  1  0  0  0  0
 10 13  1  0  0  0  0
 12 10  1  0  0  0  0
 14  8  2  0  0  0  0
 14  1  1  0  0  0  0
M  END
