5
 OpenBabel05122313113D

 38 41  0  0  1  0  0  0  0  0999 V2000
   -2.4176   -0.7685    1.2423 C   0  0  0  0  0  3  0  0  0  0  0  0
   -1.9617   -1.0679    2.2056 H   0  0  0  0  0  0  0  0  0  0  0  0
   -3.5773   -1.6056    0.8177 C   0  0  0  0  0  0  0  0  0  0  0  0
   -3.5718   -2.0943   -0.5059 C   0  0  0  0  0  0  0  0  0  0  0  0
   -2.4458   -1.6764   -1.3884 C   0  0  0  0  0  3  0  0  0  0  0  0
   -2.0077   -2.4766   -2.0162 H   0  0  0  0  0  0  0  0  0  0  0  0
   -2.2848   -0.3284   -1.8438 C   0  0  0  0  0  3  0  0  0  0  0  0
   -1.7598   -0.1880   -2.8086 H   0  0  0  0  0  0  0  0  0  0  0  0
   -3.2036    0.7820   -1.4693 C   0  0  0  0  0  0  0  0  0  0  0  0
   -3.1774    1.2421   -0.1357 C   0  0  0  0  0  0  0  0  0  0  0  0
   -2.2310    0.5933    0.8307 C   0  0  1  0  0  3  0  0  0  0  0  0
   -4.6190   -1.9612    1.6914 C   0  0  0  0  0  0  0  0  0  0  0  0
   -4.6153   -1.5919    2.7286 H   0  0  0  0  0  0  0  0  0  0  0  0
   -5.6562   -2.7930    1.2422 C   0  0  0  0  0  0  0  0  0  0  0  0
   -6.4706   -3.0708    1.9276 H   0  0  0  0  0  0  0  0  0  0  0  0
   -5.6470   -3.2841   -0.0737 C   0  0  0  0  0  0  0  0  0  0  0  0
   -6.4538   -3.9472   -0.4194 H   0  0  0  0  0  0  0  0  0  0  0  0
   -4.6036   -2.9415   -0.9470 C   0  0  0  0  0  0  0  0  0  0  0  0
   -4.5898   -3.3342   -1.9753 H   0  0  0  0  0  0  0  0  0  0  0  0
   -4.0566    1.3987   -2.4029 C   0  0  0  0  0  0  0  0  0  0  0  0
   -4.0643    1.0518   -3.4477 H   0  0  0  0  0  0  0  0  0  0  0  0
   -4.8934    2.4509   -2.0029 C   0  0  0  0  0  0  0  0  0  0  0  0
   -5.5615    2.9274   -2.7355 H   0  0  0  0  0  0  0  0  0  0  0  0
   -4.8701    2.9038   -0.6732 C   0  0  0  0  0  0  0  0  0  0  0  0
   -5.5201    3.7351   -0.3625 H   0  0  0  0  0  0  0  0  0  0  0  0
   -4.0063    2.3085    0.2573 C   0  0  0  0  0  0  0  0  0  0  0  0
   -3.9667    2.6756    1.2940 H   0  0  0  0  0  0  0  0  0  0  0  0
   -1.3504    1.5104    1.6182 C   0  0  0  0  0  0  0  0  0  0  0  0
   -1.1920    1.3847    3.0166 C   0  0  0  0  0  0  0  0  0  0  0  0
   -1.8166    0.6700    3.5741 H   0  0  0  0  0  0  0  0  0  0  0  0
   -0.2624    2.1817    3.7048 C   0  0  0  0  0  0  0  0  0  0  0  0
   -0.1594    2.0811    4.7957 H   0  0  0  0  0  0  0  0  0  0  0  0
    0.5291    3.1069    3.0060 C   0  0  0  0  0  0  0  0  0  0  0  0
    1.2681    3.7194    3.5434 H   0  0  0  0  0  0  0  0  0  0  0  0
    0.3641    3.2586    1.6172 C   0  0  0  0  0  0  0  0  0  0  0  0
    0.9814    3.9817    1.0636 H   0  0  0  0  0  0  0  0  0  0  0  0
   -0.5793    2.4816    0.9324 C   0  0  0  0  0  0  0  0  0  0  0  0
   -0.7022    2.5911   -0.1558 H   0  0  0  0  0  0  0  0  0  0  0  0
  1  2  1  0  0  0  0
  3  1  1  0  0  0  0
  3 12  1  0  0  0  0
  4  3  2  0  0  0  0
  5  4  1  0  0  0  0
  6  5  1  0  0  0  0
  7  9  1  0  0  0  0
  7  5  1  0  0  0  0
  8  7  1  0  0  0  0
  9 10  1  0  0  0  0
 10 26  2  0  0  0  0
 10 11  1  0  0  0  0
 11  1  1  0  0  0  0
 11 28  1  1  0  0  0
 12 13  1  0  0  0  0
 14 12  2  0  0  0  0
 14 15  1  0  0  0  0
 16 14  1  0  0  0  0
 17 16  1  0  0  0  0
 18  4  1  0  0  0  0
 18 16  2  0  0  0  0
 19 18  1  0  0  0  0
 20 22  1  0  0  0  0
 20  9  2  0  0  0  0
 21 20  1  0  0  0  0
 22 24  2  0  0  0  0
 23 22  1  0  0  0  0
 24 25  1  0  0  0  0
 24 26  1  0  0  0  0
 26 27  1  0  0  0  0
 28 29  1  0  0  0  0
 29 30  1  0  0  0  0
 29 31  2  0  0  0  0
 31 32  1  0  0  0  0
 33 34  1  0  0  0  0
 33 31  1  0  0  0  0
 35 33  2  0  0  0  0
 36 35  1  0  0  0  0
 37 35  1  0  0  0  0
 37 28  2  0  0  0  0
 38 37  1  0  0  0  0
M  END
