5
 OpenBabel05122313113D

 50 49  0  0  0  0  0  0  0  0999 V2000
    1.7511   -0.0130   -0.8494 P   0  0  0  0  0  0  0  0  0  0  0  0
    0.0161   -0.1681   -0.2918 N   0  0  0  0  0  0  0  0  0  0  0  0
    2.1359    1.4294   -0.0046 N   0  0  0  0  0  0  0  0  0  0  0  0
    2.3579   -1.3657    0.0144 N   0  0  0  0  0  0  0  0  0  0  0  0
   -1.1064    0.3198   -0.8066 C   0  0  0  0  0  2  0  0  0  0  0  0
   -0.9172    1.2328   -1.9852 C   0  0  0  0  0  0  0  0  0  0  0  0
    1.5358    1.8939    1.2655 C   0  0  0  0  0  0  0  0  0  0  0  0
    0.6373    3.1234    1.0680 C   0  0  0  0  0  0  0  0  0  0  0  0
    2.5805    2.1317    2.3663 C   0  0  0  0  0  0  0  0  0  0  0  0
    3.1183    2.3286   -0.6591 C   0  0  0  0  0  0  0  0  0  0  0  0
    2.6406    2.8346   -2.0271 C   0  0  0  0  0  0  0  0  0  0  0  0
    4.5135    1.6948   -0.7366 C   0  0  0  0  0  0  0  0  0  0  0  0
    2.4386   -1.4789    1.4822 C   0  0  0  0  0  0  0  0  0  0  0  0
    1.5767   -2.6170    2.0540 C   0  0  0  0  0  0  0  0  0  0  0  0
    3.8950   -1.5754    1.9604 C   0  0  0  0  0  0  0  0  0  0  0  0
    2.7624   -2.5424   -0.7946 C   0  0  0  0  0  0  0  0  0  0  0  0
    3.9368   -2.2291   -1.7310 C   0  0  0  0  0  0  0  0  0  0  0  0
    1.5737   -3.1605   -1.5451 C   0  0  0  0  0  0  0  0  0  0  0  0
   -0.0998   -0.8316    0.4844 H   0  0  0  0  0  0  0  0  0  0  0  0
   -1.0368    2.2846   -1.6485 H   0  0  0  0  0  0  0  0  0  0  0  0
   -1.7085    1.0637   -2.7396 H   0  0  0  0  0  0  0  0  0  0  0  0
    0.0806    1.1396   -2.4647 H   0  0  0  0  0  0  0  0  0  0  0  0
    0.8701    1.0783    1.6113 H   0  0  0  0  0  0  0  0  0  0  0  0
    0.1445    3.3978    2.0218 H   0  0  0  0  0  0  0  0  0  0  0  0
   -0.1571    2.9166    0.3260 H   0  0  0  0  0  0  0  0  0  0  0  0
    1.2161    4.0042    0.7211 H   0  0  0  0  0  0  0  0  0  0  0  0
    2.0788    2.3813    3.3227 H   0  0  0  0  0  0  0  0  0  0  0  0
    3.2538    2.9777    2.1186 H   0  0  0  0  0  0  0  0  0  0  0  0
    3.2101    1.2352    2.5286 H   0  0  0  0  0  0  0  0  0  0  0  0
    3.1942    3.2138    0.0058 H   0  0  0  0  0  0  0  0  0  0  0  0
    3.3579    3.5685   -2.4470 H   0  0  0  0  0  0  0  0  0  0  0  0
    1.6510    3.3246   -1.9426 H   0  0  0  0  0  0  0  0  0  0  0  0
    2.5515    1.9984   -2.7506 H   0  0  0  0  0  0  0  0  0  0  0  0
    5.2541    2.4074   -1.1534 H   0  0  0  0  0  0  0  0  0  0  0  0
    4.5038    0.7972   -1.3890 H   0  0  0  0  0  0  0  0  0  0  0  0
    4.8590    1.3792    0.2677 H   0  0  0  0  0  0  0  0  0  0  0  0
    2.0322   -0.5291    1.8814 H   0  0  0  0  0  0  0  0  0  0  0  0
    1.6076   -2.6035    3.1621 H   0  0  0  0  0  0  0  0  0  0  0  0
    1.9421   -3.6121    1.7278 H   0  0  0  0  0  0  0  0  0  0  0  0
    0.5157   -2.5379    1.7434 H   0  0  0  0  0  0  0  0  0  0  0  0
    4.3750   -2.5130    1.6114 H   0  0  0  0  0  0  0  0  0  0  0  0
    3.9489   -1.5682    3.0678 H   0  0  0  0  0  0  0  0  0  0  0  0
    4.4877   -0.7239    1.5728 H   0  0  0  0  0  0  0  0  0  0  0  0
    3.1201   -3.2950   -0.0612 H   0  0  0  0  0  0  0  0  0  0  0  0
    3.6442   -1.4750   -2.4902 H   0  0  0  0  0  0  0  0  0  0  0  0
    4.2663   -3.1407   -2.2695 H   0  0  0  0  0  0  0  0  0  0  0  0
    4.7984   -1.8285   -1.1614 H   0  0  0  0  0  0  0  0  0  0  0  0
    1.8697   -4.0967   -2.0611 H   0  0  0  0  0  0  0  0  0  0  0  0
    1.1899   -2.4595   -2.3158 H   0  0  0  0  0  0  0  0  0  0  0  0
    0.7400   -3.3929   -0.8532 H   0  0  0  0  0  0  0  0  0  0  0  0
  1  2  1  0  0  0  0
  1  3  1  0  0  0  0
  1  4  1  0  0  0  0
  2 19  1  0  0  0  0
  3  7  1  0  0  0  0
  4 13  1  0  0  0  0
  5  2  1  0  0  0  0
  6 20  1  0  0  0  0
  6  5  1  0  0  0  0
  7 23  1  0  0  0  0
  7  9  1  0  0  0  0
  8  7  1  0  0  0  0
  8 24  1  0  0  0  0
  9 29  1  0  0  0  0
  9 27  1  0  0  0  0
 10  3  1  0  0  0  0
 10 30  1  0  0  0  0
 11 32  1  0  0  0  0
 11 10  1  0  0  0  0
 12 10  1  0  0  0  0
 12 36  1  0  0  0  0
 13 37  1  0  0  0  0
 13 15  1  0  0  0  0
 13 14  1  0  0  0  0
 14 38  1  0  0  0  0
 15 42  1  0  0  0  0
 16 44  1  0  0  0  0
 16  4  1  0  0  0  0
 17 47  1  0  0  0  0
 17 16  1  0  0  0  0
 18 50  1  0  0  0  0
 18 16  1  0  0  0  0
 21  6  1  0  0  0  0
 22  6  1  0  0  0  0
 25  8  1  0  0  0  0
 26  8  1  0  0  0  0
 28  9  1  0  0  0  0
 31 11  1  0  0  0  0
 33 11  1  0  0  0  0
 34 12  1  0  0  0  0
 35 12  1  0  0  0  0
 39 14  1  0  0  0  0
 40 14  1  0  0  0  0
 41 15  1  0  0  0  0
 43 15  1  0  0  0  0
 45 17  1  0  0  0  0
 46 17  1  0  0  0  0
 48 18  1  0  0  0  0
 49 18  1  0  0  0  0
M  END
