1
 OpenBabel05122313113D

  7  6  0  0  0  0  0  0  0  0999 V2000
    0.8727    0.6759   -0.5608 C   0  0  0  0  0  1  0  0  0  0  0  0
    3.3326    0.8378   -0.6885 C   0  0  0  0  0  0  0  0  0  0  0  0
    3.7148    1.7171   -0.1229 H   0  0  0  0  0  0  0  0  0  0  0  0
    3.9301    0.7700   -1.6230 H   0  0  0  0  0  0  0  0  0  0  0  0
    3.6374   -1.3467    0.7071 C   0  0  0  0  0  3  0  0  0  0  0  0
    1.9530    1.0226   -1.0054 N   0  0  0  0  0  2  0  0  0  0  0  0
    3.5704   -0.3386    0.0840 N   0  0  0  0  0  4  0  0  0  0  0  0
  2  3  1  0  0  0  0
  2  7  1  0  0  0  0
  4  2  1  0  0  0  0
  6  2  1  0  0  0  0
  6  1  1  0  0  0  0
  7  5  3  0  0  0  0
M  END
