1
 OpenBabel05122313113D

 20 20  0  0  0  0  0  0  0  0999 V2000
   -1.7001   -0.7960    1.0223 C   0  0  0  0  0  3  0  0  0  0  0  0
   -1.7781   -0.2206    1.9700 H   0  0  0  0  0  0  0  0  0  0  0  0
   -2.9317   -0.4991    0.1573 C   0  0  0  0  0  0  0  0  0  0  0  0
   -3.1759    0.5810    0.2394 H   0  0  0  0  0  0  0  0  0  0  0  0
   -3.8227   -1.0345    0.5537 H   0  0  0  0  0  0  0  0  0  0  0  0
   -2.6953   -0.8453   -1.3221 C   0  0  0  0  0  0  0  0  0  0  0  0
   -2.9200   -1.9122   -1.5150 H   0  0  0  0  0  0  0  0  0  0  0  0
   -3.3969   -0.2779   -1.9650 H   0  0  0  0  0  0  0  0  0  0  0  0
   -1.2638   -0.5360   -1.7666 C   0  0  0  0  0  3  0  0  0  0  0  0
   -1.1704    0.2052   -2.5773 H   0  0  0  0  0  0  0  0  0  0  0  0
   -0.1692   -1.4609   -1.7225 C   0  0  0  0  0  3  0  0  0  0  0  0
    0.6729   -1.2873   -2.4143 H   0  0  0  0  0  0  0  0  0  0  0  0
    0.0416   -2.3719   -0.6481 C   0  0  0  0  0  3  0  0  0  0  0  0
    1.0375   -2.8468   -0.6519 H   0  0  0  0  0  0  0  0  0  0  0  0
   -1.0292   -3.0965    0.1592 C   0  0  0  0  0  0  0  0  0  0  0  0
   -1.8825   -3.3466   -0.5010 H   0  0  0  0  0  0  0  0  0  0  0  0
   -0.6173   -4.0663    0.4996 H   0  0  0  0  0  0  0  0  0  0  0  0
   -1.5118   -2.2775    1.3690 C   0  0  0  0  0  0  0  0  0  0  0  0
   -0.7715   -2.3684    2.1914 H   0  0  0  0  0  0  0  0  0  0  0  0
   -2.4588   -2.7007    1.7721 H   0  0  0  0  0  0  0  0  0  0  0  0
  1 18  1  0  0  0  0
  1  2  1  0  0  0  0
  3  4  1  0  0  0  0
  3  5  1  0  0  0  0
  3  1  1  0  0  0  0
  6  3  1  0  0  0  0
  7  6  1  0  0  0  0
  8  6  1  0  0  0  0
  9 11  1  0  0  0  0
  9  6  1  0  0  0  0
 10  9  1  0  0  0  0
 11 13  1  0  0  0  0
 12 11  1  0  0  0  0
 13 15  1  0  0  0  0
 14 13  1  0  0  0  0
 15 17  1  0  0  0  0
 15 18  1  0  0  0  0
 16 15  1  0  0  0  0
 18 20  1  0  0  0  0
 18 19  1  0  0  0  0
M  END
