27
 OpenBabel05122313113D

 48 50  0  0  1  0  0  0  0  0999 V2000
   -0.2838    1.4649    1.3454 F   0  0  0  0  0  0  0  0  0  0  0  0
   -0.0612    4.1023    1.9513 F   0  0  0  0  0  0  0  0  0  0  0  0
    1.7236    5.6838    0.5762 F   0  0  0  0  0  0  0  0  0  0  0  0
    3.2690    4.5904   -1.4007 F   0  0  0  0  0  0  0  0  0  0  0  0
    3.0330    1.9588   -2.0268 F   0  0  0  0  0  0  0  0  0  0  0  0
    3.0412    0.5525    1.4144 F   0  0  0  0  0  0  0  0  0  0  0  0
    5.1417   -0.9314    2.0953 F   0  0  0  0  0  0  0  0  0  0  0  0
    5.7249   -3.2460    0.7363 F   0  0  0  0  0  0  0  0  0  0  0  0
    4.1201   -4.0241   -1.3547 F   0  0  0  0  0  0  0  0  0  0  0  0
    2.0244   -2.5685   -2.0786 F   0  0  0  0  0  0  0  0  0  0  0  0
    1.3482    1.6183   -0.3831 C   0  0  0  0  0  0  0  0  0  0  0  0
    0.6114    2.2296    0.6259 C   0  0  0  0  0  0  0  0  0  0  0  0
    0.6935    3.5813    0.9796 C   0  0  0  0  0  0  0  0  0  0  0  0
    1.6049    4.3878    0.2768 C   0  0  0  0  0  0  0  0  0  0  0  0
    2.3948    3.8233   -0.7417 C   0  0  0  0  0  0  0  0  0  0  0  0
    2.2550    2.4588   -1.0472 C   0  0  0  0  0  0  0  0  0  0  0  0
    2.4353   -0.8695   -0.4234 C   0  0  0  0  0  0  0  0  0  0  0  0
    3.2784   -0.5409    0.6598 C   0  0  0  0  0  0  0  0  0  0  0  0
    4.3848   -1.3092    1.0589 C   0  0  0  0  0  0  0  0  0  0  0  0
    4.6828   -2.4953    0.3713 C   0  0  0  0  0  0  0  0  0  0  0  0
    3.8657   -2.8854   -0.6995 C   0  0  0  0  0  0  0  0  0  0  0  0
    2.7735   -2.0782   -1.0615 C   0  0  0  0  0  0  0  0  0  0  0  0
   -0.9261   -0.0054   -2.2463 C   0  0  0  0  0  0  0  0  0  0  0  0
   -1.7779    1.1348   -2.0373 C   0  0  0  0  0  0  0  0  0  0  0  0
   -3.1294    0.6612   -1.9153 C   0  0  0  0  0  0  0  0  0  0  0  0
   -3.1140   -0.7640   -1.9756 C   0  0  0  0  0  0  0  0  0  0  0  0
   -1.7439   -1.1855   -2.1726 C   0  0  1  0  0  3  0  0  0  0  0  0
    0.5673    0.0047   -2.3621 C   0  0  0  0  0  0  0  0  0  0  0  0
   -1.3995    2.5867   -2.1085 C   0  0  0  0  0  0  0  0  0  0  0  0
   -4.3578    1.5139   -1.9311 C   0  0  0  0  0  0  0  0  0  0  0  0
   -4.3514   -1.5939   -2.1615 C   0  0  0  0  0  0  0  0  0  0  0  0
   -1.3008   -2.5606   -2.5798 C   0  0  0  0  0  0  0  0  0  0  0  0
    1.1581    0.0674   -0.8278 B   0  0  0  0  0  0  0  0  0  0  0  0
    0.2384   -0.4147   -0.0250 H   0  0  0  0  0  0  0  0  0  0  0  0
    0.9057   -0.8876   -2.9136 H   0  0  0  0  0  0  0  0  0  0  0  0
    0.9077    0.8840   -2.9423 H   0  0  0  0  0  0  0  0  0  0  0  0
   -1.8612    3.0601   -3.0008 H   0  0  0  0  0  0  0  0  0  0  0  0
   -1.7584    3.1453   -1.2201 H   0  0  0  0  0  0  0  0  0  0  0  0
   -0.3059    2.7239   -2.1805 H   0  0  0  0  0  0  0  0  0  0  0  0
   -4.1754    2.5058   -1.4795 H   0  0  0  0  0  0  0  0  0  0  0  0
   -4.6899    1.6670   -2.9821 H   0  0  0  0  0  0  0  0  0  0  0  0
   -5.1958    1.0455   -1.3807 H   0  0  0  0  0  0  0  0  0  0  0  0
   -5.1124   -1.4098   -1.3768 H   0  0  0  0  0  0  0  0  0  0  0  0
   -4.8277   -1.3348   -3.1317 H   0  0  0  0  0  0  0  0  0  0  0  0
   -4.1358   -2.6756   -2.1838 H   0  0  0  0  0  0  0  0  0  0  0  0
   -1.9485   -3.3533   -2.1623 H   0  0  0  0  0  0  0  0  0  0  0  0
   -1.3481   -2.6556   -3.6867 H   0  0  0  0  0  0  0  0  0  0  0  0
   -0.2607   -2.7754   -2.2813 H   0  0  0  0  0  0  0  0  0  0  0  0
  4 15  1  0  0  0  0
  5 16  1  0  0  0  0
  9 21  1  0  0  0  0
 10 22  1  0  0  0  0
 11 12  1  0  0  0  0
 12 13  2  0  0  0  0
 12  1  1  0  0  0  0
 13  2  1  0  0  0  0
 14  3  1  0  0  0  0
 14 13  1  0  0  0  0
 15 14  2  0  0  0  0
 16 15  1  0  0  0  0
 16 11  2  0  0  0  0
 17 18  1  0  0  0  0
 18 19  2  0  0  0  0
 18  6  1  0  0  0  0
 19  7  1  0  0  0  0
 20  8  1  0  0  0  0
 20 19  1  0  0  0  0
 21 20  2  0  0  0  0
 22 21  1  0  0  0  0
 22 17  2  0  0  0  0
 23 27  1  0  0  0  0
 23 24  2  0  0  0  0
 24 25  1  0  0  0  0
 26 25  2  0  0  0  0
 27 32  1  6  0  0  0
 27 26  1  0  0  0  0
 28 23  1  0  0  0  0
 28 33  1  0  0  0  0
 29 24  1  0  0  0  0
 29 38  1  0  0  0  0
 30 25  1  0  0  0  0
 30 40  1  0  0  0  0
 30 42  1  0  0  0  0
 31 26  1  0  0  0  0
 31 43  1  0  0  0  0
 32 48  1  0  0  0  0
 32 46  1  0  0  0  0
 33 17  1  0  0  0  0
 33 11  1  0  0  0  0
 33 34  1  0  0  0  0
 35 28  1  0  0  0  0
 36 28  1  0  0  0  0
 37 29  1  0  0  0  0
 39 29  1  0  0  0  0
 41 30  1  0  0  0  0
 44 31  1  0  0  0  0
 45 31  1  0  0  0  0
 47 32  1  0  0  0  0
M  END
