19
 OpenBabel05122313113D

 58 61  0  0  1  0  0  0  0  0999 V2000
    0.8625   -0.4900   -0.9742 F   0  0  0  0  0  0  0  0  0  0  0  0
    1.7098   -2.6165   -2.3891 F   0  0  0  0  0  0  0  0  0  0  0  0
    0.2397   -4.9587   -2.4170 F   0  0  0  0  0  0  0  0  0  0  0  0
   -2.1637   -5.0436   -1.1022 F   0  0  0  0  0  0  0  0  0  0  0  0
   -3.0972   -2.9202    0.2023 F   0  0  0  0  0  0  0  0  0  0  0  0
   -3.6505   -0.4479   -1.6729 F   0  0  0  0  0  0  0  0  0  0  0  0
   -6.3312   -0.3304   -1.4873 F   0  0  0  0  0  0  0  0  0  0  0  0
   -7.5367   -0.0441    0.9683 F   0  0  0  0  0  0  0  0  0  0  0  0
   -5.9835    0.1158    3.2266 F   0  0  0  0  0  0  0  0  0  0  0  0
   -3.3324    0.0027    3.0768 F   0  0  0  0  0  0  0  0  0  0  0  0
   -1.0704    0.2468   -2.6142 F   0  0  0  0  0  0  0  0  0  0  0  0
   -0.9651    2.5854   -3.8418 F   0  0  0  0  0  0  0  0  0  0  0  0
   -1.4372    4.9271   -2.4797 F   0  0  0  0  0  0  0  0  0  0  0  0
   -1.9982    4.8225    0.2171 F   0  0  0  0  0  0  0  0  0  0  0  0
   -2.1056    2.4892    1.4888 F   0  0  0  0  0  0  0  0  0  0  0  0
    0.6392   -0.2322    2.0226 C   0  0  0  0  0  0  0  0  0  0  0  0
    1.4317   -1.4215    2.2144 C   0  0  0  0  0  0  0  0  0  0  0  0
    2.7162   -1.0330    2.7284 C   0  0  0  0  0  0  0  0  0  0  0  0
    2.7567    0.3965    2.7971 C   0  0  1  0  0  3  0  0  0  0  0  0
    1.4817    0.8969    2.3258 C   0  0  0  0  0  0  0  0  0  0  0  0
   -0.8506   -0.1886    1.8609 C   0  0  0  0  0  0  0  0  0  0  0  0
    0.9523   -2.8395    2.1171 C   0  0  0  0  0  0  0  0  0  0  0  0
    3.7550   -1.9586    3.2847 C   0  0  0  0  0  0  0  0  0  0  0  0
    3.7872    1.1519    3.5868 C   0  0  0  0  0  0  0  0  0  0  0  0
    0.9853    2.3067    2.4602 C   0  0  0  0  0  0  0  0  0  0  0  0
   -1.2150   -1.5532   -0.3802 C   0  0  0  0  0  0  0  0  0  0  0  0
    0.0211   -1.6301   -1.0087 C   0  0  0  0  0  0  0  0  0  0  0  0
    0.5407   -2.7015   -1.7377 C   0  0  0  0  0  0  0  0  0  0  0  0
   -0.2093   -3.8866   -1.7621 C   0  0  0  0  0  0  0  0  0  0  0  0
   -1.4444   -3.9188   -1.0936 C   0  0  0  0  0  0  0  0  0  0  0  0
   -1.9166   -2.7753   -0.4193 C   0  0  0  0  0  0  0  0  0  0  0  0
   -3.3356   -0.2156    0.6796 C   0  0  0  0  0  0  0  0  0  0  0  0
   -4.1852   -0.2917   -0.4404 C   0  0  0  0  0  0  0  0  0  0  0  0
   -5.5849   -0.2417   -0.3779 C   0  0  0  0  0  0  0  0  0  0  0  0
   -6.2032   -0.0976    0.8743 C   0  0  0  0  0  0  0  0  0  0  0  0
   -5.4062   -0.0176    2.0241 C   0  0  0  0  0  0  0  0  0  0  0  0
   -4.0045   -0.0775    1.9066 C   0  0  0  0  0  0  0  0  0  0  0  0
   -1.5161    1.2141   -0.4554 C   0  0  0  0  0  0  0  0  0  0  0  0
   -1.2886    1.3318   -1.8396 C   0  0  0  0  0  0  0  0  0  0  0  0
   -1.2597    2.5553   -2.5324 C   0  0  0  0  0  0  0  0  0  0  0  0
   -1.4888    3.7527   -1.8424 C   0  0  0  0  0  0  0  0  0  0  0  0
   -1.7658    3.6954   -0.4685 C   0  0  0  0  0  0  0  0  0  0  0  0
   -1.7816    2.4471    0.1765 C   0  0  0  0  0  0  0  0  0  0  0  0
   -1.6996   -0.1914    0.4180 B   0  0  0  0  0  0  0  0  0  0  0  0
   -1.2367   -1.0747    2.4043 H   0  0  0  0  0  0  0  0  0  0  0  0
   -1.2032    0.6847    2.4366 H   0  0  0  0  0  0  0  0  0  0  0  0
   -0.0139   -2.9100    1.5871 H   0  0  0  0  0  0  0  0  0  0  0  0
    1.6846   -3.4776    1.5835 H   0  0  0  0  0  0  0  0  0  0  0  0
    0.8143   -3.2687    3.1324 H   0  0  0  0  0  0  0  0  0  0  0  0
    3.5582   -2.1350    4.3650 H   0  0  0  0  0  0  0  0  0  0  0  0
    3.7470   -2.9385    2.7733 H   0  0  0  0  0  0  0  0  0  0  0  0
    4.7771   -1.5413    3.2007 H   0  0  0  0  0  0  0  0  0  0  0  0
    3.7048    0.8625    4.6564 H   0  0  0  0  0  0  0  0  0  0  0  0
    4.8267    0.9247    3.2776 H   0  0  0  0  0  0  0  0  0  0  0  0
    3.6438    2.2441    3.5344 H   0  0  0  0  0  0  0  0  0  0  0  0
    1.8108    3.0332    2.5738 H   0  0  0  0  0  0  0  0  0  0  0  0
    0.3631    2.6237    1.6058 H   0  0  0  0  0  0  0  0  0  0  0  0
    0.3436    2.3939    3.3634 H   0  0  0  0  0  0  0  0  0  0  0  0
  2 28  1  0  0  0  0
  3 29  1  0  0  0  0
  4 30  1  0  0  0  0
  6 33  1  0  0  0  0
  7 34  1  0  0  0  0
 11 39  1  0  0  0  0
 12 40  1  0  0  0  0
 13 41  1  0  0  0  0
 16 17  1  0  0  0  0
 16 20  2  0  0  0  0
 17 18  2  0  0  0  0
 18 19  1  0  0  0  0
 18 23  1  0  0  0  0
 19 24  1  1  0  0  0
 20 25  1  0  0  0  0
 20 19  1  0  0  0  0
 21 16  1  0  0  0  0
 21 45  1  0  0  0  0
 21 46  1  0  0  0  0
 22 17  1  0  0  0  0
 22 49  1  0  0  0  0
 23 50  1  0  0  0  0
 24 53  1  0  0  0  0
 25 56  1  0  0  0  0
 25 58  1  0  0  0  0
 26 44  1  0  0  0  0
 27  1  1  0  0  0  0
 27 26  2  0  0  0  0
 28 27  1  0  0  0  0
 29 28  2  0  0  0  0
 29 30  1  0  0  0  0
 30 31  2  0  0  0  0
 31 26  1  0  0  0  0
 31  5  1  0  0  0  0
 32 37  1  0  0  0  0
 33 34  1  0  0  0  0
 33 32  2  0  0  0  0
 34 35  2  0  0  0  0
 35  8  1  0  0  0  0
 35 36  1  0  0  0  0
 36  9  1  0  0  0  0
 37 36  2  0  0  0  0
 37 10  1  0  0  0  0
 38 43  1  0  0  0  0
 38 44  1  0  0  0  0
 39 38  2  0  0  0  0
 40 41  2  0  0  0  0
 40 39  1  0  0  0  0
 41 42  1  0  0  0  0
 42 43  2  0  0  0  0
 42 14  1  0  0  0  0
 43 15  1  0  0  0  0
 44 32  1  0  0  0  0
 44 21  1  0  0  0  0
 47 22  1  0  0  0  0
 48 22  1  0  0  0  0
 51 23  1  0  0  0  0
 52 23  1  0  0  0  0
 54 24  1  0  0  0  0
 55 24  1  0  0  0  0
 57 25  1  0  0  0  0
M  END
