2
 OpenBabel05122313113D

 17 17  0  0  0  0  0  0  0  0999 V2000
    0.4566   -3.2120    1.1690 Cl  0  0  0  0  0  0  0  0  0  0  0  0
    0.5650   -0.7417   -1.3359 C   0  0  0  0  0  3  0  0  0  0  0  0
    0.1221   -1.7534   -1.2820 H   0  0  0  0  0  0  0  0  0  0  0  0
    0.5456   -0.4041   -2.3929 H   0  0  0  0  0  0  0  0  0  0  0  0
    1.9626   -0.8092   -0.8265 C   0  0  0  0  0  0  0  0  0  0  0  0
    3.0503   -0.5134   -1.6801 C   0  0  0  0  0  0  0  0  0  0  0  0
    2.8333   -0.2224   -2.7203 H   0  0  0  0  0  0  0  0  0  0  0  0
    4.3796   -0.5765   -1.2421 C   0  0  0  0  0  0  0  0  0  0  0  0
    5.1979   -0.3373   -1.9388 H   0  0  0  0  0  0  0  0  0  0  0  0
    4.6643   -0.9398    0.0836 C   0  0  0  0  0  0  0  0  0  0  0  0
    5.7035   -0.9868    0.4417 H   0  0  0  0  0  0  0  0  0  0  0  0
    3.6045   -1.2570    0.9453 C   0  0  0  0  0  0  0  0  0  0  0  0
    3.8154   -1.5595    1.9838 H   0  0  0  0  0  0  0  0  0  0  0  0
    2.2646   -1.2026    0.5136 C   0  0  0  0  0  0  0  0  0  0  0  0
    1.1735   -1.5446    1.4761 C   0  0  0  0  0  0  0  0  0  0  0  0
    0.3116   -0.8428    1.3792 H   0  0  0  0  0  0  0  0  0  0  0  0
    1.5312   -1.5731    2.5214 H   0  0  0  0  0  0  0  0  0  0  0  0
  1 15  1  0  0  0  0
  2  3  1  0  0  0  0
  2  5  1  0  0  0  0
  4  2  1  0  0  0  0
  5 14  1  0  0  0  0
  6  8  1  0  0  0  0
  6  5  2  0  0  0  0
  7  6  1  0  0  0  0
  8 10  2  0  0  0  0
  9  8  1  0  0  0  0
 10 11  1  0  0  0  0
 10 12  1  0  0  0  0
 12 13  1  0  0  0  0
 14 12  2  0  0  0  0
 14 15  1  0  0  0  0
 15 17  1  0  0  0  0
 16 15  1  0  0  0  0
M  END
