3
 OpenBabel05122313113D

 28 29  0  0  0  0  0  0  0  0999 V2000
    1.3323    1.6671   -0.7789 C   0  0  0  0  0  0  0  0  0  0  0  0
    0.5931    0.5872   -0.3731 C   0  0  0  0  0  3  0  0  0  0  0  0
    0.5931   -0.5873    0.3730 C   0  0  0  0  0  2  0  0  0  0  0  0
    1.3322   -1.6672    0.7788 C   0  0  0  0  0  3  0  0  0  0  0  0
    2.7169   -1.9977    0.4442 C   0  0  0  0  0  0  0  0  0  0  0  0
    3.3921   -3.0198    1.1635 C   0  0  0  0  0  0  0  0  0  0  0  0
    4.7085   -3.3803    0.8563 C   0  0  0  0  0  0  0  0  0  0  0  0
    5.3938   -2.7380   -0.1911 C   0  0  0  0  0  0  0  0  0  0  0  0
    4.7373   -1.7389   -0.9283 C   0  0  0  0  0  0  0  0  0  0  0  0
    3.4205   -1.3746   -0.6212 C   0  0  0  0  0  0  0  0  0  0  0  0
    2.7169    1.9976   -0.4442 C   0  0  0  0  0  0  0  0  0  0  0  0
    3.3922    3.0196   -1.1637 C   0  0  0  0  0  0  0  0  0  0  0  0
    4.7085    3.3801   -0.8564 C   0  0  0  0  0  0  0  0  0  0  0  0
    5.3938    2.7380    0.1911 C   0  0  0  0  0  0  0  0  0  0  0  0
    4.7372    1.7390    0.9284 C   0  0  0  0  0  0  0  0  0  0  0  0
    3.4205    1.3747    0.6213 C   0  0  0  0  0  0  0  0  0  0  0  0
    0.8264    2.4345   -1.3937 H   0  0  0  0  0  0  0  0  0  0  0  0
    0.8263   -2.4346    1.3936 H   0  0  0  0  0  0  0  0  0  0  0  0
    2.8606   -3.5283    1.9846 H   0  0  0  0  0  0  0  0  0  0  0  0
    5.2085   -4.1704    1.4384 H   0  0  0  0  0  0  0  0  0  0  0  0
    6.4297   -3.0201   -0.4336 H   0  0  0  0  0  0  0  0  0  0  0  0
    5.2583   -1.2307   -1.7546 H   0  0  0  0  0  0  0  0  0  0  0  0
    2.9138   -0.6008   -1.2139 H   0  0  0  0  0  0  0  0  0  0  0  0
    2.8607    3.5280   -1.9849 H   0  0  0  0  0  0  0  0  0  0  0  0
    5.2087    4.1701   -1.4386 H   0  0  0  0  0  0  0  0  0  0  0  0
    6.4297    3.0201    0.4337 H   0  0  0  0  0  0  0  0  0  0  0  0
    5.2582    1.2310    1.7548 H   0  0  0  0  0  0  0  0  0  0  0  0
    2.9137    0.6010    1.2142 H   0  0  0  0  0  0  0  0  0  0  0  0
  1 11  1  0  0  0  0
  1  2  2  0  0  0  0
  2  3  1  0  0  0  0
  3  4  1  0  0  0  0
  4 18  1  0  0  0  0
  5  4  1  0  0  0  0
  5  6  1  0  0  0  0
  6 19  1  0  0  0  0
  7  6  2  0  0  0  0
  7 20  1  0  0  0  0
  8  7  1  0  0  0  0
  9 10  1  0  0  0  0
  9  8  2  0  0  0  0
 10  5  2  0  0  0  0
 11 16  1  0  0  0  0
 12 13  1  0  0  0  0
 12 11  2  0  0  0  0
 13 14  2  0  0  0  0
 14 26  1  0  0  0  0
 14 15  1  0  0  0  0
 15 27  1  0  0  0  0
 16 15  2  0  0  0  0
 16 28  1  0  0  0  0
 17  1  1  0  0  0  0
 21  8  1  0  0  0  0
 22  9  1  0  0  0  0
 23 10  1  0  0  0  0
 24 12  1  0  0  0  0
 25 13  1  0  0  0  0
M  END
