3
 OpenBabel05122313113D

 19 19  0  0  0  0  0  0  0  0999 V2000
    6.8415   -1.3675   -0.0289 O   0  0  0  0  0  0  0  0  0  0  0  0
    5.9645    0.7686   -0.0394 N   0  0  0  0  0  0  0  0  0  0  0  0
    0.3260    0.0615    0.0354 C   0  0  0  0  0  1  0  0  0  0  0  0
    1.7471    0.2257    0.0138 C   0  0  0  0  0  0  0  0  0  0  0  0
    2.3413    1.5173   -0.0100 C   0  0  0  0  0  0  0  0  0  0  0  0
    3.7266    1.6702   -0.0281 C   0  0  0  0  0  0  0  0  0  0  0  0
    4.5800    0.5411   -0.0235 C   0  0  0  0  0  0  0  0  0  0  0  0
    4.0068   -0.7538   -0.0029 C   0  0  0  0  0  0  0  0  0  0  0  0
    2.6196   -0.8981    0.0150 C   0  0  0  0  0  0  0  0  0  0  0  0
    7.0034   -0.1528   -0.0392 C   0  0  0  0  0  0  0  0  0  0  0  0
    8.3917    0.4742   -0.0482 C   0  0  0  0  0  0  0  0  0  0  0  0
    6.2382    1.7519   -0.0494 H   0  0  0  0  0  0  0  0  0  0  0  0
    1.6941    2.4078   -0.0146 H   0  0  0  0  0  0  0  0  0  0  0  0
    4.1643    2.6819   -0.0454 H   0  0  0  0  0  0  0  0  0  0  0  0
    4.6719   -1.6251   -0.0009 H   0  0  0  0  0  0  0  0  0  0  0  0
    2.1788   -1.9059    0.0301 H   0  0  0  0  0  0  0  0  0  0  0  0
    8.9531    0.0717   -0.9139 H   0  0  0  0  0  0  0  0  0  0  0  0
    8.4010    1.5806   -0.0943 H   0  0  0  0  0  0  0  0  0  0  0  0
    8.9314    0.1479    0.8628 H   0  0  0  0  0  0  0  0  0  0  0  0
  2 10  1  0  0  0  0
  2  7  1  0  0  0  0
  4  9  1  0  0  0  0
  4  3  1  0  0  0  0
  5  4  2  0  0  0  0
  6  7  2  0  0  0  0
  6  5  1  0  0  0  0
  7  8  1  0  0  0  0
  8 15  1  0  0  0  0
  8  9  2  0  0  0  0
  9 16  1  0  0  0  0
 10  1  2  0  0  0  0
 11 10  1  0  0  0  0
 11 19  1  0  0  0  0
 12  2  1  0  0  0  0
 13  5  1  0  0  0  0
 14  6  1  0  0  0  0
 17 11  1  0  0  0  0
 18 11  1  0  0  0  0
M  END
