2
 OpenBabel05122313113D

 42 44  0  0  0  0  0  0  0  0999 V2000
   -0.7159   -0.3321   -1.1958 S   0  0  0  0  0  0  0  0  0  0  0  0
   -0.0362   -0.0345    1.6389 C   0  0  0  0  0  3  0  0  0  0  0  0
    0.4754   -0.1256    2.9559 C   0  0  0  0  0  0  0  0  0  0  0  0
   -0.3613   -0.1596    4.0795 C   0  0  0  0  0  0  0  0  0  0  0  0
   -1.7557   -0.1288    3.9167 C   0  0  0  0  0  0  0  0  0  0  0  0
   -2.2891   -0.0740    2.6237 C   0  0  0  0  0  0  0  0  0  0  0  0
   -1.4482   -0.0244    1.4891 C   0  0  0  0  0  0  0  0  0  0  0  0
   -2.0888    0.1272    0.1175 C   0  0  0  0  0  0  0  0  0  0  0  0
   -2.3488    1.6014   -0.2302 C   0  0  0  0  0  0  0  0  0  0  0  0
   -2.2721    2.6055    0.7555 C   0  0  0  0  0  0  0  0  0  0  0  0
   -2.5120    3.9518    0.4338 C   0  0  0  0  0  0  0  0  0  0  0  0
   -2.8316    4.3229   -0.8800 C   0  0  0  0  0  0  0  0  0  0  0  0
   -2.9064    3.3333   -1.8739 C   0  0  0  0  0  0  0  0  0  0  0  0
   -2.6610    1.9917   -1.5527 C   0  0  0  0  0  0  0  0  0  0  0  0
   -3.2965   -0.7882   -0.0517 C   0  0  0  0  0  0  0  0  0  0  0  0
   -3.2088   -2.1153    0.4347 C   0  0  0  0  0  0  0  0  0  0  0  0
   -4.2841   -3.0020    0.3106 C   0  0  0  0  0  0  0  0  0  0  0  0
   -5.4817   -2.5824   -0.2935 C   0  0  0  0  0  0  0  0  0  0  0  0
   -5.5887   -1.2664   -0.7632 C   0  0  0  0  0  0  0  0  0  0  0  0
   -4.5076   -0.3771   -0.6429 C   0  0  0  0  0  0  0  0  0  0  0  0
   -0.9396   -2.1145   -1.6835 C   0  0  0  0  0  0  0  0  0  0  0  0
   -0.2012   -2.2813   -2.9761 C   0  0  0  0  0  0  0  0  0  0  0  0
    1.0600   -2.7464   -3.0638 C   0  0  0  0  0  0  0  0  0  0  0  0
    1.5631   -0.2058    3.0994 H   0  0  0  0  0  0  0  0  0  0  0  0
    0.0786   -0.2308    5.0868 H   0  0  0  0  0  0  0  0  0  0  0  0
   -2.4253   -0.1611    4.7894 H   0  0  0  0  0  0  0  0  0  0  0  0
   -3.3812   -0.0618    2.4838 H   0  0  0  0  0  0  0  0  0  0  0  0
   -2.0174    2.3274    1.7872 H   0  0  0  0  0  0  0  0  0  0  0  0
   -2.4433    4.7163    1.2228 H   0  0  0  0  0  0  0  0  0  0  0  0
   -3.0165    5.3782   -1.1317 H   0  0  0  0  0  0  0  0  0  0  0  0
   -3.1478    3.6089   -2.9119 H   0  0  0  0  0  0  0  0  0  0  0  0
   -2.6884    1.2307   -2.3462 H   0  0  0  0  0  0  0  0  0  0  0  0
   -2.2800   -2.4436    0.9243 H   0  0  0  0  0  0  0  0  0  0  0  0
   -4.1874   -4.0289    0.6945 H   0  0  0  0  0  0  0  0  0  0  0  0
   -6.3298   -3.2774   -0.3877 H   0  0  0  0  0  0  0  0  0  0  0  0
   -6.5263   -0.9177   -1.2224 H   0  0  0  0  0  0  0  0  0  0  0  0
   -4.6215    0.6563   -0.9968 H   0  0  0  0  0  0  0  0  0  0  0  0
   -0.5290   -2.7452   -0.8717 H   0  0  0  0  0  0  0  0  0  0  0  0
   -2.0288   -2.2692   -1.7987 H   0  0  0  0  0  0  0  0  0  0  0  0
   -0.7348   -1.9606   -3.8890 H   0  0  0  0  0  0  0  0  0  0  0  0
    1.6167   -3.0375   -2.1568 H   0  0  0  0  0  0  0  0  0  0  0  0
    1.5598   -2.8448   -4.0405 H   0  0  0  0  0  0  0  0  0  0  0  0
  1  8  1  0  0  0  0
  2  3  1  0  0  0  0
  3 24  1  0  0  0  0
  3  4  2  0  0  0  0
  4 25  1  0  0  0  0
  5  4  1  0  0  0  0
  5 26  1  0  0  0  0
  6  5  2  0  0  0  0
  7  2  2  0  0  0  0
  7  6  1  0  0  0  0
  8  7  1  0  0  0  0
  9  8  1  0  0  0  0
  9 10  1  0  0  0  0
 10 28  1  0  0  0  0
 11 10  2  0  0  0  0
 11 29  1  0  0  0  0
 12 11  1  0  0  0  0
 13 14  1  0  0  0  0
 13 12  2  0  0  0  0
 14  9  2  0  0  0  0
 15  8  1  0  0  0  0
 15 16  1  0  0  0  0
 16 33  1  0  0  0  0
 17 16  2  0  0  0  0
 17 34  1  0  0  0  0
 18 17  1  0  0  0  0
 19 20  1  0  0  0  0
 19 18  2  0  0  0  0
 20 15  2  0  0  0  0
 21  1  1  0  0  0  0
 21 38  1  0  0  0  0
 22 21  1  0  0  0  0
 23 22  2  0  0  0  0
 23 41  1  0  0  0  0
 27  6  1  0  0  0  0
 30 12  1  0  0  0  0
 31 13  1  0  0  0  0
 32 14  1  0  0  0  0
 35 18  1  0  0  0  0
 36 19  1  0  0  0  0
 37 20  1  0  0  0  0
 39 21  1  0  0  0  0
 40 22  1  0  0  0  0
 42 23  1  0  0  0  0
M  END
