1
 OpenBabel05122313113D

 19 18  0  0  0  0  0  0  0  0999 V2000
    0.5601    0.4618   -1.4644 C   0  0  0  0  0  1  0  0  0  0  0  0
    1.1906    1.0648   -2.2579 N   0  0  0  0  0  2  0  0  0  0  0  0
    2.2245    1.6310   -3.0392 C   0  0  0  0  0  0  0  0  0  0  0  0
    3.5335    1.7971   -2.1920 C   0  0  0  0  0  0  0  0  0  0  0  0
    3.3482    2.9075   -1.1561 C   0  0  0  0  0  0  0  0  0  0  0  0
    4.6859    2.1168   -3.1528 C   0  0  0  0  0  0  0  0  0  0  0  0
    3.7767    0.6226   -1.4176 O   0  0  0  0  0  0  0  0  0  0  0  0
    3.9406   -0.6147   -2.0922 C   0  0  0  0  0  0  0  0  0  0  0  0
    1.9042    2.6157   -3.4354 H   0  0  0  0  0  0  0  0  0  0  0  0
    2.3998    0.9677   -3.9122 H   0  0  0  0  0  0  0  0  0  0  0  0
    3.1756    3.8859   -1.6444 H   0  0  0  0  0  0  0  0  0  0  0  0
    4.2575    2.9818   -0.5295 H   0  0  0  0  0  0  0  0  0  0  0  0
    2.4920    2.6799   -0.4913 H   0  0  0  0  0  0  0  0  0  0  0  0
    5.6239    2.2448   -2.5787 H   0  0  0  0  0  0  0  0  0  0  0  0
    4.4899    3.0572   -3.7046 H   0  0  0  0  0  0  0  0  0  0  0  0
    4.8415    1.3147   -3.9009 H   0  0  0  0  0  0  0  0  0  0  0  0
    3.0460   -0.8989   -2.6921 H   0  0  0  0  0  0  0  0  0  0  0  0
    4.0793   -1.3699   -1.2958 H   0  0  0  0  0  0  0  0  0  0  0  0
    4.8333   -0.6274   -2.7563 H   0  0  0  0  0  0  0  0  0  0  0  0
  2  1  1  0  0  0  0
  3  2  1  0  0  0  0
  3  4  1  0  0  0  0
  4  7  1  0  0  0  0
  4  5  1  0  0  0  0
  5 12  1  0  0  0  0
  5 13  1  0  0  0  0
  6 14  1  0  0  0  0
  6  4  1  0  0  0  0
  8  7  1  0  0  0  0
  8 18  1  0  0  0  0
  9  3  1  0  0  0  0
 10  3  1  0  0  0  0
 11  5  1  0  0  0  0
 15  6  1  0  0  0  0
 16  6  1  0  0  0  0
 17  8  1  0  0  0  0
 19  8  1  0  0  0  0
M  END
