1
 OpenBabel05122313113D

 18 17  0  0  0  0  0  0  0  0999 V2000
   -0.9675    1.1245   -1.3666 C   0  0  0  0  0  1  0  0  0  0  0  0
   -1.8597    1.6845   -1.8963 N   0  0  0  0  0  2  0  0  0  0  0  0
   -3.0572    2.2546   -2.4245 C   0  0  0  0  0  0  0  0  0  0  0  0
   -4.2377    1.5697   -1.6735 C   0  0  0  0  0  0  0  0  0  0  0  0
   -4.1193    0.7200   -0.8134 O   0  0  0  0  0  0  0  0  0  0  0  0
   -5.4006    2.0602   -2.1209 O   0  0  0  0  0  0  0  0  0  0  0  0
   -3.0697    3.7722   -2.1485 C   0  0  0  0  0  0  0  0  0  0  0  0
   -3.1492    1.9514   -3.9341 C   0  0  0  0  0  0  0  0  0  0  0  0
   -6.5936    1.5200   -1.5182 C   0  0  0  0  0  0  0  0  0  0  0  0
   -2.2168    4.2536   -2.6646 H   0  0  0  0  0  0  0  0  0  0  0  0
   -2.9924    3.9765   -1.0633 H   0  0  0  0  0  0  0  0  0  0  0  0
   -4.0126    4.2045   -2.5294 H   0  0  0  0  0  0  0  0  0  0  0  0
   -3.1299    0.8603   -4.1195 H   0  0  0  0  0  0  0  0  0  0  0  0
   -2.2959    2.4181   -4.4629 H   0  0  0  0  0  0  0  0  0  0  0  0
   -4.0923    2.3670   -4.3329 H   0  0  0  0  0  0  0  0  0  0  0  0
   -7.4377    2.0363   -2.0060 H   0  0  0  0  0  0  0  0  0  0  0  0
   -6.5964    1.7134   -0.4276 H   0  0  0  0  0  0  0  0  0  0  0  0
   -6.6526    0.4277   -1.6914 H   0  0  0  0  0  0  0  0  0  0  0  0
  2  1  1  0  0  0  0
  3  7  1  0  0  0  0
  3  2  1  0  0  0  0
  3  4  1  0  0  0  0
  4  5  2  0  0  0  0
  6  4  1  0  0  0  0
  6  9  1  0  0  0  0
  7 11  1  0  0  0  0
  8  3  1  0  0  0  0
  9 17  1  0  0  0  0
 10  7  1  0  0  0  0
 12  7  1  0  0  0  0
 13  8  1  0  0  0  0
 14  8  1  0  0  0  0
 15  8  1  0  0  0  0
 16  9  1  0  0  0  0
 18  9  1  0  0  0  0
M  END
