2
 OpenBabel05122313113D

 48 51  0  0  0  0  0  0  0  0999 V2000
    0.5941    0.9155    0.3824 S   0  0  0  0  0  0  0  0  0  0  0  0
    0.4239   -1.6482   -1.0289 C   0  0  0  0  0  3  0  0  0  0  0  0
    0.1285   -2.7576   -1.8570 C   0  0  0  0  0  0  0  0  0  0  0  0
    1.1282   -3.4705   -2.5322 C   0  0  0  0  0  0  0  0  0  0  0  0
    2.4705   -3.0732   -2.4197 C   0  0  0  0  0  0  0  0  0  0  0  0
    2.7873   -1.9591   -1.6337 C   0  0  0  0  0  0  0  0  0  0  0  0
    1.7837   -1.2496   -0.9369 C   0  0  0  0  0  0  0  0  0  0  0  0
    2.2055   -0.1094   -0.0228 C   0  0  0  0  0  0  0  0  0  0  0  0
    2.5852   -0.6147    1.3785 C   0  0  0  0  0  0  0  0  0  0  0  0
    2.7814   -1.9876    1.6284 C   0  0  0  0  0  0  0  0  0  0  0  0
    3.1185   -2.4459    2.9129 C   0  0  0  0  0  0  0  0  0  0  0  0
    3.2637   -1.5423    3.9749 C   0  0  0  0  0  0  0  0  0  0  0  0
    3.0657   -0.1714    3.7419 C   0  0  0  0  0  0  0  0  0  0  0  0
    2.7243    0.2837    2.4615 C   0  0  0  0  0  0  0  0  0  0  0  0
    3.2389    0.7980   -0.6804 C   0  0  0  0  0  0  0  0  0  0  0  0
    4.3815    1.2851   -0.0157 C   0  0  0  0  0  0  0  0  0  0  0  0
    5.2998    2.1166   -0.6788 C   0  0  0  0  0  0  0  0  0  0  0  0
    5.0949    2.4750   -2.0180 C   0  0  0  0  0  0  0  0  0  0  0  0
    3.9661    1.9846   -2.6969 C   0  0  0  0  0  0  0  0  0  0  0  0
    3.0538    1.1526   -2.0387 C   0  0  0  0  0  0  0  0  0  0  0  0
    0.5342    2.4038   -0.7320 C   0  0  0  0  0  0  0  0  0  0  0  0
   -0.4799    3.3315   -0.1195 C   0  0  0  0  0  0  0  0  0  0  0  0
   -1.8197    3.3232   -0.5595 C   0  0  0  0  0  0  0  0  0  0  0  0
   -2.7671    4.1666    0.0413 C   0  0  0  0  0  0  0  0  0  0  0  0
   -2.3954    5.0149    1.0965 C   0  0  0  0  0  0  0  0  0  0  0  0
   -1.0642    5.0220    1.5469 C   0  0  0  0  0  0  0  0  0  0  0  0
   -0.1151    4.1858    0.9431 C   0  0  0  0  0  0  0  0  0  0  0  0
   -0.9230   -3.0469   -2.0034 H   0  0  0  0  0  0  0  0  0  0  0  0
    0.8545   -4.3279   -3.1671 H   0  0  0  0  0  0  0  0  0  0  0  0
    3.2651   -3.6185   -2.9508 H   0  0  0  0  0  0  0  0  0  0  0  0
    3.8351   -1.6317   -1.5471 H   0  0  0  0  0  0  0  0  0  0  0  0
    2.6626   -2.7060    0.8060 H   0  0  0  0  0  0  0  0  0  0  0  0
    3.2639   -3.5240    3.0807 H   0  0  0  0  0  0  0  0  0  0  0  0
    3.5241   -1.9027    4.9817 H   0  0  0  0  0  0  0  0  0  0  0  0
    3.1671    0.5504    4.5668 H   0  0  0  0  0  0  0  0  0  0  0  0
    2.5358    1.3553    2.3007 H   0  0  0  0  0  0  0  0  0  0  0  0
    4.5728    0.9978    1.0270 H   0  0  0  0  0  0  0  0  0  0  0  0
    6.1888    2.4779   -0.1395 H   0  0  0  0  0  0  0  0  0  0  0  0
    5.8155    3.1259   -2.5360 H   0  0  0  0  0  0  0  0  0  0  0  0
    3.7966    2.2480   -3.7520 H   0  0  0  0  0  0  0  0  0  0  0  0
    2.1806    0.7578   -2.5794 H   0  0  0  0  0  0  0  0  0  0  0  0
    0.2475    2.0696   -1.7465 H   0  0  0  0  0  0  0  0  0  0  0  0
    1.5523    2.8356   -0.7268 H   0  0  0  0  0  0  0  0  0  0  0  0
   -2.1070    2.6352   -1.3707 H   0  0  0  0  0  0  0  0  0  0  0  0
   -3.8076    4.1580   -0.3192 H   0  0  0  0  0  0  0  0  0  0  0  0
   -3.1408    5.6739    1.5675 H   0  0  0  0  0  0  0  0  0  0  0  0
   -0.7638    5.6873    2.3709 H   0  0  0  0  0  0  0  0  0  0  0  0
    0.9287    4.1920    1.2965 H   0  0  0  0  0  0  0  0  0  0  0  0
  2  7  1  0  0  0  0
  3  2  2  0  0  0  0
  4  5  2  0  0  0  0
  4  3  1  0  0  0  0
  5  6  1  0  0  0  0
  6 31  1  0  0  0  0
  6  7  2  0  0  0  0
  7  8  1  0  0  0  0
  8  1  1  0  0  0  0
  8  9  1  0  0  0  0
  9 10  2  0  0  0  0
  9 14  1  0  0  0  0
 10 11  1  0  0  0  0
 11 33  1  0  0  0  0
 11 12  2  0  0  0  0
 12 34  1  0  0  0  0
 13 12  1  0  0  0  0
 13 35  1  0  0  0  0
 14 13  2  0  0  0  0
 15  8  1  0  0  0  0
 15 16  1  0  0  0  0
 16 37  1  0  0  0  0
 17 38  1  0  0  0  0
 17 16  2  0  0  0  0
 18 17  1  0  0  0  0
 19 20  1  0  0  0  0
 19 18  2  0  0  0  0
 20 15  2  0  0  0  0
 21 43  1  0  0  0  0
 21 22  1  0  0  0  0
 21  1  1  0  0  0  0
 22 27  1  0  0  0  0
 23 22  2  0  0  0  0
 23 24  1  0  0  0  0
 24 25  2  0  0  0  0
 25 26  1  0  0  0  0
 25 46  1  0  0  0  0
 26 47  1  0  0  0  0
 27 48  1  0  0  0  0
 27 26  2  0  0  0  0
 28  3  1  0  0  0  0
 29  4  1  0  0  0  0
 30  5  1  0  0  0  0
 32 10  1  0  0  0  0
 36 14  1  0  0  0  0
 39 18  1  0  0  0  0
 40 19  1  0  0  0  0
 41 20  1  0  0  0  0
 42 21  1  0  0  0  0
 44 23  1  0  0  0  0
 45 24  1  0  0  0  0
M  END
