4
 OpenBabel05122313113D

 23 24  0  0  0  0  0  0  0  0999 V2000
    1.7256    3.6588    0.5667 O   0  0  0  0  0  0  0  0  0  0  0  0
    1.9420    2.4383    0.4973 C   0  0  0  0  0  0  0  0  0  0  0  0
    1.1526    1.4391    1.2370 C   0  0  0  0  0  3  0  0  0  0  0  0
    1.5783    0.0469    1.2257 C   0  0  0  0  0  3  0  0  0  0  0  0
    2.9085   -0.3190    0.6904 C   0  0  0  0  0  0  0  0  0  0  0  0
    3.6288    0.5595   -0.0628 C   0  0  0  0  0  0  0  0  0  0  0  0
    3.0787    1.9259   -0.3851 C   0  0  0  0  0  0  0  0  0  0  0  0
    2.7137    1.9513   -1.4400 H   0  0  0  0  0  0  0  0  0  0  0  0
    3.8764    2.6989   -0.3471 H   0  0  0  0  0  0  0  0  0  0  0  0
    3.4674   -1.6668    1.1017 C   0  0  0  0  0  0  0  0  0  0  0  0
    2.6588   -2.4275    1.1050 H   0  0  0  0  0  0  0  0  0  0  0  0
    3.7976   -1.5956    2.1654 H   0  0  0  0  0  0  0  0  0  0  0  0
    4.6395   -2.1239    0.2300 C   0  0  0  0  0  0  0  0  0  0  0  0
    5.1280   -3.0159    0.6750 H   0  0  0  0  0  0  0  0  0  0  0  0
    4.2590   -2.4404   -0.7678 H   0  0  0  0  0  0  0  0  0  0  0  0
    5.6459   -0.9855    0.0423 C   0  0  0  0  0  0  0  0  0  0  0  0
    6.5243   -1.3251   -0.5453 H   0  0  0  0  0  0  0  0  0  0  0  0
    6.0320   -0.6808    1.0403 H   0  0  0  0  0  0  0  0  0  0  0  0
    4.9869    0.2222   -0.6334 C   0  0  0  0  0  0  0  0  0  0  0  0
    4.8834    0.0364   -1.7300 H   0  0  0  0  0  0  0  0  0  0  0  0
    5.6502    1.1127   -0.5593 H   0  0  0  0  0  0  0  0  0  0  0  0
    0.6518    1.8491    2.1292 H   0  0  0  0  0  0  0  0  0  0  0  0
    1.2674   -0.5568    2.0991 H   0  0  0  0  0  0  0  0  0  0  0  0
  2  1  2  0  0  0  0
  2  3  1  0  0  0  0
  3 22  1  0  0  0  0
  4  3  1  0  0  0  0
  4 23  1  0  0  0  0
  5 10  1  0  0  0  0
  5  4  1  0  0  0  0
  6  5  2  0  0  0  0
  7  9  1  0  0  0  0
  7  6  1  0  0  0  0
  7  2  1  0  0  0  0
  8  7  1  0  0  0  0
 10 11  1  0  0  0  0
 10 12  1  0  0  0  0
 13 14  1  0  0  0  0
 13 10  1  0  0  0  0
 15 13  1  0  0  0  0
 16 13  1  0  0  0  0
 16 18  1  0  0  0  0
 17 16  1  0  0  0  0
 19 21  1  0  0  0  0
 19  6  1  0  0  0  0
 19 16  1  0  0  0  0
 20 19  1  0  0  0  0
M  END
