4
 OpenBabel05122313113D

 38 39  0  0  1  0  0  0  0  0999 V2000
   -3.1140    1.5488   -0.0807 Si  0  0  0  0  0  0  0  0  0  0  0  0
    3.5307    1.1646   -0.0716 Si  0  0  0  0  0  0  0  0  0  0  0  0
   -1.8155    0.6228    0.9547 C   0  0  1  0  0  3  0  0  0  0  0  0
   -0.4553    1.0441    1.2642 C   0  0  2  0  0  3  0  0  0  0  0  0
    0.5859    1.5267    0.3867 C   0  0  0  0  0  3  0  0  0  0  0  0
    1.8297    0.8871    0.7403 C   0  0  0  0  0  0  0  0  0  0  0  0
    1.5604   -0.0604    1.7622 C   0  0  0  0  0  0  0  0  0  0  0  0
    0.1606    0.0050    2.0999 C   0  0  2  0  0  3  0  0  0  0  0  0
   -0.8534   -0.9816    2.3984 C   0  0  0  0  0  0  0  0  0  0  0  0
   -2.0239   -0.5864    1.7257 C   0  0  0  0  0  0  0  0  0  0  0  0
   -4.6661    0.4827   -0.1544 C   0  0  0  0  0  0  0  0  0  0  0  0
   -3.4431    3.1840    0.8131 C   0  0  0  0  0  0  0  0  0  0  0  0
   -2.4529    1.8971   -1.8171 C   0  0  0  0  0  0  0  0  0  0  0  0
    3.3142    2.3568   -1.5166 C   0  0  0  0  0  0  0  0  0  0  0  0
    4.6412    1.9239    1.2604 C   0  0  0  0  0  0  0  0  0  0  0  0
    4.2131   -0.5039   -0.6249 C   0  0  0  0  0  0  0  0  0  0  0  0
    0.4712    2.2722   -0.4092 H   0  0  0  0  0  0  0  0  0  0  0  0
    2.2797   -0.7807    2.1692 H   0  0  0  0  0  0  0  0  0  0  0  0
   -0.7114   -1.9137    2.9562 H   0  0  0  0  0  0  0  0  0  0  0  0
   -2.9488   -1.1771    1.6953 H   0  0  0  0  0  0  0  0  0  0  0  0
   -5.0840    0.3002    0.8568 H   0  0  0  0  0  0  0  0  0  0  0  0
   -4.4372   -0.4949   -0.6242 H   0  0  0  0  0  0  0  0  0  0  0  0
   -5.4505    0.9829   -0.7587 H   0  0  0  0  0  0  0  0  0  0  0  0
   -3.8318    3.0098    1.8368 H   0  0  0  0  0  0  0  0  0  0  0  0
   -4.1896    3.7906    0.2596 H   0  0  0  0  0  0  0  0  0  0  0  0
   -2.5132    3.7826    0.8994 H   0  0  0  0  0  0  0  0  0  0  0  0
   -1.5289    2.5098   -1.8018 H   0  0  0  0  0  0  0  0  0  0  0  0
   -3.2146    2.4596   -2.3959 H   0  0  0  0  0  0  0  0  0  0  0  0
   -2.2340    0.9557   -2.3588 H   0  0  0  0  0  0  0  0  0  0  0  0
    2.9168    3.3356   -1.1774 H   0  0  0  0  0  0  0  0  0  0  0  0
    2.6165    1.9328   -2.2661 H   0  0  0  0  0  0  0  0  0  0  0  0
    4.2868    2.5436   -2.0162 H   0  0  0  0  0  0  0  0  0  0  0  0
    4.7425    1.2452    2.1318 H   0  0  0  0  0  0  0  0  0  0  0  0
    4.2324    2.8883    1.6245 H   0  0  0  0  0  0  0  0  0  0  0  0
    5.6578    2.1133    0.8576 H   0  0  0  0  0  0  0  0  0  0  0  0
    4.2440   -1.2269    0.2154 H   0  0  0  0  0  0  0  0  0  0  0  0
    5.2439   -0.3931   -1.0198 H   0  0  0  0  0  0  0  0  0  0  0  0
    3.5740   -0.9364   -1.4199 H   0  0  0  0  0  0  0  0  0  0  0  0
  1 12  1  0  0  0  0
  2  6  1  0  0  0  0
  2 15  1  0  0  0  0
  3  1  1  1  0  0  0
  3  4  1  0  0  0  0
  3 10  1  0  0  0  0
  4  5  1  6  0  0  0
  4  8  1  0  0  0  0
  5  6  1  0  0  0  0
  6  7  2  0  0  0  0
  7 18  1  0  0  0  0
  8  7  1  6  0  0  0
  8  9  1  0  0  0  0
  9 19  1  0  0  0  0
 10  9  2  0  0  0  0
 11  1  1  0  0  0  0
 11 21  1  0  0  0  0
 12 26  1  0  0  0  0
 12 24  1  0  0  0  0
 13 27  1  0  0  0  0
 13  1  1  0  0  0  0
 14 30  1  0  0  0  0
 14  2  1  0  0  0  0
 15 34  1  0  0  0  0
 15 33  1  0  0  0  0
 16  2  1  0  0  0  0
 16 36  1  0  0  0  0
 17  5  1  0  0  0  0
 20 10  1  0  0  0  0
 22 11  1  0  0  0  0
 23 11  1  0  0  0  0
 25 12  1  0  0  0  0
 28 13  1  0  0  0  0
 29 13  1  0  0  0  0
 31 14  1  0  0  0  0
 32 14  1  0  0  0  0
 35 15  1  0  0  0  0
 37 16  1  0  0  0  0
 38 16  1  0  0  0  0
M  END
