10
 OpenBabel05122313113D

 31 32  0  0  1  0  0  0  0  0999 V2000
    0.2171   -0.5147   -0.1270 C   0  0  0  0  0  0  0  0  0  0  0  0
   -0.2362   -0.9474    1.1460 C   0  0  0  0  0  0  0  0  0  0  0  0
    0.1955   -0.5055    2.0523 H   0  0  0  0  0  0  0  0  0  0  0  0
   -1.2811   -1.9175    1.2594 C   0  0  0  0  0  0  0  0  0  0  0  0
   -1.6571   -2.1963    2.2534 H   0  0  0  0  0  0  0  0  0  0  0  0
   -1.8726   -2.4689    0.0996 C   0  0  0  0  0  0  0  0  0  0  0  0
   -2.7082   -3.1765    0.1870 H   0  0  0  0  0  0  0  0  0  0  0  0
   -1.4146   -2.0539   -1.1909 C   0  0  0  0  0  3  0  0  0  0  0  0
   -1.8982   -2.4426   -2.0976 H   0  0  0  0  0  0  0  0  0  0  0  0
   -0.3845   -1.0912   -1.2981 C   0  0  0  0  0  3  0  0  0  0  0  0
   -0.0712   -0.7369   -2.2906 H   0  0  0  0  0  0  0  0  0  0  0  0
    1.3232    0.5144   -0.2789 C   0  0  2  0  0  0  0  0  0  0  0  0
    1.2316    0.9465   -1.2958 H   0  0  0  0  0  0  0  0  0  0  0  0
    2.6749   -0.1855   -0.1786 C   0  0  0  0  0  0  0  0  0  0  0  0
    3.5603   -0.2448   -1.2712 C   0  0  0  0  0  0  0  0  0  0  0  0
    3.2868    0.2240   -2.2284 H   0  0  0  0  0  0  0  0  0  0  0  0
    4.7898   -0.9000   -1.1113 C   0  0  0  0  0  0  0  0  0  0  0  0
    5.5034   -0.9595   -1.9475 H   0  0  0  0  0  0  0  0  0  0  0  0
    5.0922   -1.4741    0.1309 C   0  0  0  0  0  0  0  0  0  0  0  0
    6.0435   -1.9984    0.3040 H   0  0  0  0  0  0  0  0  0  0  0  0
    4.1431   -1.3601    1.1610 C   0  0  0  0  0  0  0  0  0  0  0  0
    4.3463   -1.7973    2.1552 H   0  0  0  0  0  0  0  0  0  0  0  0
    2.9676   -0.7343    1.0158 N   0  0  0  0  0  0  0  0  0  0  0  0
    1.2302    1.6818    0.7377 C   0  0  0  0  0  0  0  0  0  0  0  0
    0.1757    2.0157    0.7935 H   0  0  0  0  0  0  0  0  0  0  0  0
    1.5181    1.2867    1.7350 H   0  0  0  0  0  0  0  0  0  0  0  0
    2.1239    2.8300    0.3639 C   0  0  0  0  0  0  0  0  0  0  0  0
    3.2109    2.6717    0.4905 H   0  0  0  0  0  0  0  0  0  0  0  0
    1.6827    3.9970   -0.1371 C   0  0  0  0  0  0  0  0  0  0  0  0
    0.6054    4.1782   -0.2918 H   0  0  0  0  0  0  0  0  0  0  0  0
    2.3759    4.8069   -0.4132 H   0  0  0  0  0  0  0  0  0  0  0  0
  1  2  2  0  0  0  0
  2  4  1  0  0  0  0
  2  3  1  0  0  0  0
  4  5  1  0  0  0  0
  6  7  1  0  0  0  0
  6  4  2  0  0  0  0
  8  6  1  0  0  0  0
  9  8  1  0  0  0  0
 10  8  1  0  0  0  0
 10  1  1  0  0  0  0
 11 10  1  0  0  0  0
 12 13  1  6  0  0  0
 12 14  1  0  0  0  0
 12  1  1  0  0  0  0
 12 24  1  0  0  0  0
 14 23  1  0  0  0  0
 15 17  1  0  0  0  0
 15 14  2  0  0  0  0
 16 15  1  0  0  0  0
 17 19  2  0  0  0  0
 18 17  1  0  0  0  0
 19 20  1  0  0  0  0
 19 21  1  0  0  0  0
 21 22  1  0  0  0  0
 23 21  2  0  0  0  0
 24 25  1  0  0  0  0
 24 26  1  0  0  0  0
 27 28  1  0  0  0  0
 27 24  1  0  0  0  0
 29 27  2  0  0  0  0
 30 29  1  0  0  0  0
 31 29  1  0  0  0  0
M  END
