3
 OpenBabel05122313113D

 71 75  0  0  1  0  0  0  0  0999 V2000
   -4.6334    2.9601    0.8217 C   0  0  0  0  0  0  0  0  0  0  0  0
   -5.1882    3.5039    1.6022 H   0  0  0  0  0  0  0  0  0  0  0  0
   -0.4711   -1.4950    0.2236 C   0  0  0  0  0  2  0  0  0  0  0  0
    0.2826   -2.4163    0.8962 N   0  0  0  0  0  0  0  0  0  0  0  0
   -4.4398    1.5563    0.9836 C   0  0  0  0  0  0  0  0  0  0  0  0
    2.6647   -3.2764   -0.5730 C   0  0  0  0  0  0  0  0  0  0  0  0
    1.9706   -4.1059   -0.3724 H   0  0  0  0  0  0  0  0  0  0  0  0
   -1.5953   -3.4494    0.3230 C   0  0  0  0  0  0  0  0  0  0  0  0
   -2.4134   -4.1526    0.1662 H   0  0  0  0  0  0  0  0  0  0  0  0
    3.4990   -1.0376   -0.0647 C   0  0  0  0  0  0  0  0  0  0  0  0
   -0.3910   -3.6294    0.9521 C   0  0  0  0  0  0  0  0  0  0  0  0
    0.0204   -4.5180    1.4310 H   0  0  0  0  0  0  0  0  0  0  0  0
    2.0658   -2.8013    2.7169 C   0  0  0  0  0  0  0  0  0  0  0  0
   -2.7059   -1.4153   -0.8373 C   0  0  2  0  0  0  0  0  0  0  0  0
   -2.1321   -0.7218   -1.4798 H   0  0  0  0  0  0  0  0  0  0  0  0
   -3.2037    1.5476   -1.1437 C   0  0  0  0  0  0  0  0  0  0  0  0
   -2.6293    1.0273   -1.9219 H   0  0  0  0  0  0  0  0  0  0  0  0
    1.6360   -2.0751    1.3910 C   0  0  1  0  0  0  0  0  0  0  0  0
    1.5104   -1.0150    1.6808 H   0  0  0  0  0  0  0  0  0  0  0  0
    4.3945   -2.3313   -1.9839 C   0  0  0  0  0  0  0  0  0  0  0  0
    5.0753   -2.3922   -2.8470 H   0  0  0  0  0  0  0  0  0  0  0  0
   -3.9956   -1.2020    1.3194 C   0  0  0  0  0  0  0  0  0  0  0  0
   -3.7980   -2.2702    1.4923 H   0  0  0  0  0  0  0  0  0  0  0  0
    3.5434   -3.3790   -1.6783 C   0  0  0  0  0  0  0  0  0  0  0  0
    3.5336   -4.2884   -2.2974 H   0  0  0  0  0  0  0  0  0  0  0  0
   -3.4083    2.9136   -1.2689 C   0  0  0  0  0  0  0  0  0  0  0  0
   -3.0023    3.4469   -2.1420 H   0  0  0  0  0  0  0  0  0  0  0  0
   -4.6182   -3.1709   -1.1832 C   0  0  0  0  0  0  0  0  0  0  0  0
   -4.2040   -3.9385   -0.5007 H   0  0  0  0  0  0  0  0  0  0  0  0
   -5.1761   -3.7146   -1.9725 H   0  0  0  0  0  0  0  0  0  0  0  0
   -5.3479   -2.5693   -0.6073 H   0  0  0  0  0  0  0  0  0  0  0  0
   -4.9354    0.8791    2.1333 C   0  0  0  0  0  0  0  0  0  0  0  0
   -5.4829    1.4581    2.8930 H   0  0  0  0  0  0  0  0  0  0  0  0
    5.2219    1.1227   -0.7865 C   0  0  0  0  0  0  0  0  0  0  0  0
    5.8786    1.9636   -1.0563 H   0  0  0  0  0  0  0  0  0  0  0  0
   -1.6238   -2.1378   -0.1317 N   0  0  0  0  0  0  0  0  0  0  0  0
   -3.5056   -0.5937    0.1667 C   0  0  0  0  0  0  0  0  0  0  0  0
   -3.7107    0.8179   -0.0241 C   0  0  0  0  0  0  0  0  0  0  0  0
   -4.2803   -1.2823   -2.7636 C   0  0  0  0  0  0  0  0  0  0  0  0
   -4.9369   -0.5987   -2.1902 H   0  0  0  0  0  0  0  0  0  0  0  0
   -4.9117   -1.8350   -3.4879 H   0  0  0  0  0  0  0  0  0  0  0  0
   -3.5617   -0.6681   -3.3426 H   0  0  0  0  0  0  0  0  0  0  0  0
   -4.7131   -0.4767    2.3011 C   0  0  0  0  0  0  0  0  0  0  0  0
   -5.0788   -0.9948    3.2001 H   0  0  0  0  0  0  0  0  0  0  0  0
   -3.5468   -2.2814   -1.8428 C   0  0  0  0  0  0  0  0  0  0  0  0
   -2.5989   -3.1263   -2.7177 C   0  0  0  0  0  0  0  0  0  0  0  0
   -1.7879   -2.4988   -3.1409 H   0  0  0  0  0  0  0  0  0  0  0  0
   -3.1667   -3.5772   -3.5567 H   0  0  0  0  0  0  0  0  0  0  0  0
   -2.1201   -3.9529   -2.1582 H   0  0  0  0  0  0  0  0  0  0  0  0
    4.3473    1.2361    0.3253 C   0  0  0  0  0  0  0  0  0  0  0  0
    4.3274    2.1695    0.9086 H   0  0  0  0  0  0  0  0  0  0  0  0
    5.2390   -0.0459   -1.5292 C   0  0  0  0  0  0  0  0  0  0  0  0
    5.9068   -0.1461   -2.3991 H   0  0  0  0  0  0  0  0  0  0  0  0
    3.5104    0.1858    0.6739 C   0  0  0  0  0  0  0  0  0  0  0  0
    2.8374    0.3113    1.5328 H   0  0  0  0  0  0  0  0  0  0  0  0
    4.3903   -1.1438   -1.1990 C   0  0  0  0  0  0  0  0  0  0  0  0
    2.6315   -2.1456    0.2388 C   0  0  0  0  0  0  0  0  0  0  0  0
    0.9175   -2.7280    3.7437 C   0  0  0  0  0  0  0  0  0  0  0  0
    0.5356   -1.6906    3.8350 H   0  0  0  0  0  0  0  0  0  0  0  0
    1.2837   -3.0548    4.7380 H   0  0  0  0  0  0  0  0  0  0  0  0
    0.0594   -3.3742    3.4765 H   0  0  0  0  0  0  0  0  0  0  0  0
    2.5374   -4.2557    2.5257 C   0  0  0  0  0  0  0  0  0  0  0  0
    1.7547   -4.9324    2.1307 H   0  0  0  0  0  0  0  0  0  0  0  0
    2.8505   -4.6689    3.5060 H   0  0  0  0  0  0  0  0  0  0  0  0
    3.4060   -4.3139    1.8413 H   0  0  0  0  0  0  0  0  0  0  0  0
    3.2593   -2.0016    3.2825 C   0  0  0  0  0  0  0  0  0  0  0  0
    4.1051   -1.9617    2.5683 H   0  0  0  0  0  0  0  0  0  0  0  0
    3.6216   -2.4804    4.2143 H   0  0  0  0  0  0  0  0  0  0  0  0
    2.9650   -0.9621    3.5303 H   0  0  0  0  0  0  0  0  0  0  0  0
   -4.1308    3.6310   -0.2804 C   0  0  0  0  0  0  0  0  0  0  0  0
   -4.2846    4.7152   -0.3892 H   0  0  0  0  0  0  0  0  0  0  0  0
  1  5  1  0  0  0  0
  1  2  1  0  0  0  0
  3  4  1  0  0  0  0
  4 11  1  0  0  0  0
  4 18  1  0  0  0  0
  5 32  1  0  0  0  0
  6  7  1  0  0  0  0
  6 57  1  0  0  0  0
  8 11  2  0  0  0  0
  9  8  1  0  0  0  0
 10 57  2  0  0  0  0
 10 54  1  0  0  0  0
 11 12  1  0  0  0  0
 13 66  1  0  0  0  0
 13 58  1  0  0  0  0
 14 15  1  6  0  0  0
 14 36  1  0  0  0  0
 14 37  1  0  0  0  0
 16 38  1  0  0  0  0
 17 16  1  0  0  0  0
 18 19  1  1  0  0  0
 18 13  1  0  0  0  0
 20 24  1  0  0  0  0
 20 56  2  0  0  0  0
 21 20  1  0  0  0  0
 22 23  1  0  0  0  0
 22 43  1  0  0  0  0
 24  6  2  0  0  0  0
 25 24  1  0  0  0  0
 26 16  2  0  0  0  0
 26 70  1  0  0  0  0
 27 26  1  0  0  0  0
 28 31  1  0  0  0  0
 28 29  1  0  0  0  0
 30 28  1  0  0  0  0
 32 43  2  0  0  0  0
 32 33  1  0  0  0  0
 34 50  1  0  0  0  0
 35 34  1  0  0  0  0
 36  3  1  0  0  0  0
 36  8  1  0  0  0  0
 37 22  2  0  0  0  0
 38 37  1  0  0  0  0
 38  5  2  0  0  0  0
 39 40  1  0  0  0  0
 39 45  1  0  0  0  0
 41 39  1  0  0  0  0
 42 39  1  0  0  0  0
 43 44  1  0  0  0  0
 45 28  1  0  0  0  0
 45 14  1  0  0  0  0
 46 49  1  0  0  0  0
 46 45  1  0  0  0  0
 47 46  1  0  0  0  0
 48 46  1  0  0  0  0
 50 54  2  0  0  0  0
 50 51  1  0  0  0  0
 52 56  1  0  0  0  0
 52 34  2  0  0  0  0
 53 52  1  0  0  0  0
 54 55  1  0  0  0  0
 56 10  1  0  0  0  0
 57 18  1  0  0  0  0
 58 59  1  0  0  0  0
 58 60  1  0  0  0  0
 61 58  1  0  0  0  0
 62 13  1  0  0  0  0
 62 64  1  0  0  0  0
 63 62  1  0  0  0  0
 65 62  1  0  0  0  0
 66 69  1  0  0  0  0
 66 68  1  0  0  0  0
 67 66  1  0  0  0  0
 70  1  2  0  0  0  0
 71 70  1  0  0  0  0
M  END
