4
 OpenBabel05122313113D

 55 56  0  0  1  0  0  0  0  0999 V2000
   -4.2658   -0.3651   -1.4844 O   0  0  0  0  0  0  0  0  0  0  0  0
   -3.2814   -1.9192    0.6054 O   0  0  0  0  0  0  0  0  0  0  0  0
   -0.1259   -0.3974   -0.5769 C   0  0  0  0  0  0  0  0  0  0  0  0
   -0.6392    0.4888   -1.5790 C   0  0  0  0  0  3  0  0  0  0  0  0
   -2.0183    0.5476   -1.8897 C   0  0  0  0  0  3  0  0  0  0  0  0
   -2.9443   -0.2916   -1.1958 C   0  0  0  0  0  0  0  0  0  0  0  0
   -2.4712   -1.1049   -0.1185 C   0  0  0  0  0  0  0  0  0  0  0  0
   -1.0598   -1.1538    0.1906 C   0  0  0  0  0  0  0  0  0  0  0  0
   -0.5991   -2.0408    1.3313 C   0  0  2  0  0  0  0  0  0  0  0  0
    0.7316   -1.5222    1.8957 C   0  0  0  0  0  0  0  0  0  0  0  0
    1.7924   -1.3939    0.8047 C   0  0  0  0  0  0  0  0  0  0  0  0
    1.3801   -0.4344   -0.3291 C   0  0  1  0  0  0  0  0  0  0  0  0
   -4.8320    0.6110   -2.3526 C   0  0  0  0  0  0  0  0  0  0  0  0
   -4.5009   -1.4008    1.1458 C   0  0  0  0  0  0  0  0  0  0  0  0
   -0.5404   -3.5108    0.8757 C   0  0  0  0  0  0  0  0  0  0  0  0
    2.1558   -0.7195   -1.6533 C   0  0  1  0  0  0  0  0  0  0  0  0
    3.6819   -0.6628   -1.4613 C   0  0  0  0  0  0  0  0  0  0  0  0
    4.2251    0.6694   -0.9139 C   0  0  0  0  0  0  0  0  0  0  0  0
    5.7262    0.7015   -0.8579 C   0  0  0  0  0  0  0  0  0  0  0  0
    6.5161    0.6487    0.2418 C   0  0  0  0  0  0  0  0  0  0  0  0
    6.0000    0.5730    1.6561 C   0  0  0  0  0  0  0  0  0  0  0  0
    8.0188    0.6637    0.1187 C   0  0  0  0  0  0  0  0  0  0  0  0
    1.7352   -2.0380   -2.3149 C   0  0  0  0  0  0  0  0  0  0  0  0
    0.0495    1.1530   -2.1184 H   0  0  0  0  0  0  0  0  0  0  0  0
   -2.3701    1.2508   -2.6538 H   0  0  0  0  0  0  0  0  0  0  0  0
   -1.3713   -1.9727    2.1235 H   0  0  0  0  0  0  0  0  0  0  0  0
    1.0841   -2.2086    2.6932 H   0  0  0  0  0  0  0  0  0  0  0  0
    0.5586   -0.5363    2.3753 H   0  0  0  0  0  0  0  0  0  0  0  0
    2.7498   -1.0461    1.2425 H   0  0  0  0  0  0  0  0  0  0  0  0
    2.0037   -2.4003    0.3865 H   0  0  0  0  0  0  0  0  0  0  0  0
    1.6548    0.5961   -0.0176 H   0  0  0  0  0  0  0  0  0  0  0  0
   -4.6839    1.6377   -1.9569 H   0  0  0  0  0  0  0  0  0  0  0  0
   -5.9142    0.3906   -2.3940 H   0  0  0  0  0  0  0  0  0  0  0  0
   -4.4127    0.5387   -3.3795 H   0  0  0  0  0  0  0  0  0  0  0  0
   -5.3160   -1.4056    0.3965 H   0  0  0  0  0  0  0  0  0  0  0  0
   -4.3451   -0.3633    1.5113 H   0  0  0  0  0  0  0  0  0  0  0  0
   -4.7638   -2.0602    1.9945 H   0  0  0  0  0  0  0  0  0  0  0  0
   -0.2098   -4.1612    1.7109 H   0  0  0  0  0  0  0  0  0  0  0  0
   -1.5401   -3.8538    0.5465 H   0  0  0  0  0  0  0  0  0  0  0  0
    0.1625   -3.6537    0.0307 H   0  0  0  0  0  0  0  0  0  0  0  0
    1.8975    0.1019   -2.3589 H   0  0  0  0  0  0  0  0  0  0  0  0
    4.0128   -1.4907   -0.7972 H   0  0  0  0  0  0  0  0  0  0  0  0
    4.1605   -0.8688   -2.4439 H   0  0  0  0  0  0  0  0  0  0  0  0
    3.8621    1.4949   -1.5680 H   0  0  0  0  0  0  0  0  0  0  0  0
    3.7968    0.8700    0.0890 H   0  0  0  0  0  0  0  0  0  0  0  0
    6.2345    0.7373   -1.8398 H   0  0  0  0  0  0  0  0  0  0  0  0
    6.3757   -0.3438    2.1608 H   0  0  0  0  0  0  0  0  0  0  0  0
    4.8960    0.5668    1.7222 H   0  0  0  0  0  0  0  0  0  0  0  0
    6.3719    1.4299    2.2591 H   0  0  0  0  0  0  0  0  0  0  0  0
    8.3498    0.7156   -0.9368 H   0  0  0  0  0  0  0  0  0  0  0  0
    8.4678   -0.2443    0.5783 H   0  0  0  0  0  0  0  0  0  0  0  0
    8.4560    1.5309    0.6612 H   0  0  0  0  0  0  0  0  0  0  0  0
    2.0058   -2.9148   -1.6909 H   0  0  0  0  0  0  0  0  0  0  0  0
    2.2447   -2.1656   -3.2912 H   0  0  0  0  0  0  0  0  0  0  0  0
    0.6421   -2.0783   -2.4952 H   0  0  0  0  0  0  0  0  0  0  0  0
  1  6  1  0  0  0  0
  2 14  1  0  0  0  0
  3 12  1  0  0  0  0
  3  8  2  0  0  0  0
  4  3  1  0  0  0  0
  5  4  1  0  0  0  0
  5  6  1  0  0  0  0
  6  7  2  0  0  0  0
  7  8  1  0  0  0  0
  7  2  1  0  0  0  0
  8  9  1  0  0  0  0
  9 10  1  0  0  0  0
  9 26  1  1  0  0  0
 10 28  1  0  0  0  0
 10 27  1  0  0  0  0
 11 29  1  0  0  0  0
 11 10  1  0  0  0  0
 12 31  1  1  0  0  0
 12 11  1  0  0  0  0
 13 32  1  0  0  0  0
 13  1  1  0  0  0  0
 14 36  1  0  0  0  0
 14 37  1  0  0  0  0
 15  9  1  0  0  0  0
 15 38  1  0  0  0  0
 16 41  1  6  0  0  0
 16 17  1  0  0  0  0
 16 12  1  0  0  0  0
 17 18  1  0  0  0  0
 17 42  1  0  0  0  0
 18 19  1  0  0  0  0
 18 45  1  0  0  0  0
 19 20  2  0  0  0  0
 20 21  1  0  0  0  0
 21 48  1  0  0  0  0
 21 47  1  0  0  0  0
 21 49  1  0  0  0  0
 22 20  1  0  0  0  0
 22 51  1  0  0  0  0
 22 52  1  0  0  0  0
 23 53  1  0  0  0  0
 23 16  1  0  0  0  0
 24  4  1  0  0  0  0
 25  5  1  0  0  0  0
 30 11  1  0  0  0  0
 33 13  1  0  0  0  0
 34 13  1  0  0  0  0
 35 14  1  0  0  0  0
 39 15  1  0  0  0  0
 40 15  1  0  0  0  0
 43 17  1  0  0  0  0
 44 18  1  0  0  0  0
 46 19  1  0  0  0  0
 50 22  1  0  0  0  0
 54 23  1  0  0  0  0
 55 23  1  0  0  0  0
M  END
