9
 OpenBabel05122313113D

 55 57  0  0  1  0  0  0  0  0999 V2000
   -0.2395    3.9866    0.4575 C   0  0  0  0  0  0  0  0  0  0  0  0
    0.4972    3.6596    1.2183 H   0  0  0  0  0  0  0  0  0  0  0  0
   -0.7243    4.9146    0.8188 H   0  0  0  0  0  0  0  0  0  0  0  0
    0.3067    4.2264   -0.4772 H   0  0  0  0  0  0  0  0  0  0  0  0
   -1.2865    2.9148    0.2222 C   0  0  0  0  0  0  0  0  0  0  0  0
   -2.0210    3.2231   -0.5501 H   0  0  0  0  0  0  0  0  0  0  0  0
   -1.8506    2.6797    1.1468 H   0  0  0  0  0  0  0  0  0  0  0  0
   -0.6117    1.7312   -0.2301 O   0  0  0  0  0  0  0  0  0  0  0  0
   -1.2411    0.5547   -0.3664 C   0  0  0  0  0  3  0  0  0  0  0  0
   -0.3374   -0.4868   -0.7717 C   0  0  0  0  0  0  0  0  0  0  0  0
   -0.8293   -1.4384   -1.0147 H   0  0  0  0  0  0  0  0  0  0  0  0
    1.0652   -0.5178   -0.7838 C   0  0  1  0  0  3  0  0  0  0  0  0
    1.6887   -1.8489   -1.0362 C   0  0  0  0  0  0  0  0  0  0  0  0
    2.7639   -1.9722   -1.9456 C   0  0  0  0  0  0  0  0  0  0  0  0
    3.1470   -1.0680   -2.4418 H   0  0  0  0  0  0  0  0  0  0  0  0
    3.3189   -3.2255   -2.2374 C   0  0  0  0  0  0  0  0  0  0  0  0
    4.1465   -3.3013   -2.9593 H   0  0  0  0  0  0  0  0  0  0  0  0
    2.8168   -4.3824   -1.6189 C   0  0  0  0  0  0  0  0  0  0  0  0
    3.2551   -5.3663   -1.8449 H   0  0  0  0  0  0  0  0  0  0  0  0
    1.7474   -4.2749   -0.7145 C   0  0  0  0  0  0  0  0  0  0  0  0
    1.3482   -5.1747   -0.2221 H   0  0  0  0  0  0  0  0  0  0  0  0
    1.1838   -3.0235   -0.4306 C   0  0  0  0  0  0  0  0  0  0  0  0
    0.3534   -2.9463    0.2876 H   0  0  0  0  0  0  0  0  0  0  0  0
    1.9064    0.6407   -0.6210 C   0  0  0  0  0  3  0  0  0  0  0  0
    1.4778    1.5983   -0.9382 H   0  0  0  0  0  0  0  0  0  0  0  0
    3.1684    0.6669   -0.0308 C   0  0  2  0  0  3  0  0  0  0  0  0
    3.6916   -0.4627    0.7789 C   0  0  0  0  0  0  0  0  0  0  0  0
    5.0456   -1.0511    0.4199 C   0  0  0  0  0  0  0  0  0  0  0  0
    5.1664   -1.0215   -0.6832 H   0  0  0  0  0  0  0  0  0  0  0  0
    5.8676   -0.4148    0.8219 H   0  0  0  0  0  0  0  0  0  0  0  0
    5.1980   -2.4852    0.9400 C   0  0  0  0  0  0  0  0  0  0  0  0
    4.5598   -3.1575    0.3272 H   0  0  0  0  0  0  0  0  0  0  0  0
    6.2448   -2.8269    0.8054 H   0  0  0  0  0  0  0  0  0  0  0  0
    4.7765   -2.5840    2.4095 C   0  0  0  0  0  0  0  0  0  0  0  0
    5.4120   -1.9048    3.0205 H   0  0  0  0  0  0  0  0  0  0  0  0
    4.9461   -3.6074    2.8016 H   0  0  0  0  0  0  0  0  0  0  0  0
    3.3038   -2.1902    2.5777 C   0  0  0  0  0  0  0  0  0  0  0  0
    3.0515   -2.0204    3.6468 H   0  0  0  0  0  0  0  0  0  0  0  0
    2.6413   -3.0297    2.2568 H   0  0  0  0  0  0  0  0  0  0  0  0
    2.9215   -0.9913    1.7641 C   0  0  0  0  0  0  0  0  0  0  0  0
    1.9327   -0.5402    1.9524 H   0  0  0  0  0  0  0  0  0  0  0  0
    3.9952    1.7647   -0.1661 N   0  0  0  0  0  0  0  0  0  0  0  0
    4.8254    2.2315    0.9449 C   0  0  0  0  0  0  0  0  0  0  0  0
    5.0589    1.3860    1.6174 H   0  0  0  0  0  0  0  0  0  0  0  0
    4.2516    2.9824    1.5409 H   0  0  0  0  0  0  0  0  0  0  0  0
    6.0968    2.8895    0.4150 C   0  0  0  0  0  0  0  0  0  0  0  0
    6.6789    3.3313    1.2479 H   0  0  0  0  0  0  0  0  0  0  0  0
    6.7298    2.1167   -0.0894 H   0  0  0  0  0  0  0  0  0  0  0  0
    5.7899    3.9432   -0.4823 O   0  0  0  0  0  0  0  0  0  0  0  0
    5.0394    3.4603   -1.5810 C   0  0  0  0  0  0  0  0  0  0  0  0
    5.6344    2.7093   -2.1587 H   0  0  0  0  0  0  0  0  0  0  0  0
    4.8346    4.3261   -2.2416 H   0  0  0  0  0  0  0  0  0  0  0  0
    3.7218    2.8111   -1.1431 C   0  0  0  0  0  0  0  0  0  0  0  0
    3.0411    3.5867   -0.7151 H   0  0  0  0  0  0  0  0  0  0  0  0
    3.2169    2.3623   -2.0206 H   0  0  0  0  0  0  0  0  0  0  0  0
  1  3  1  0  0  0  0
  1  2  1  0  0  0  0
  4  1  1  0  0  0  0
  5  1  1  0  0  0  0
  5  7  1  0  0  0  0
  6  5  1  0  0  0  0
  8  5  1  0  0  0  0
  9  8  1  0  0  0  0
 10  9  2  0  0  0  0
 11 10  1  0  0  0  0
 12 10  1  6  0  0  0
 12 24  1  0  0  0  0
 13 12  1  0  0  0  0
 13 22  1  0  0  0  0
 14 13  2  0  0  0  0
 15 14  1  0  0  0  0
 16 14  1  0  0  0  0
 16 18  2  0  0  0  0
 17 16  1  0  0  0  0
 18 20  1  0  0  0  0
 19 18  1  0  0  0  0
 20 22  2  0  0  0  0
 20 21  1  0  0  0  0
 22 23  1  0  0  0  0
 25 24  1  0  0  0  0
 26 24  1  1  0  0  0
 26 27  1  0  0  0  0
 27 40  2  0  0  0  0
 28 27  1  0  0  0  0
 28 30  1  0  0  0  0
 28 31  1  0  0  0  0
 29 28  1  0  0  0  0
 31 34  1  0  0  0  0
 32 31  1  0  0  0  0
 33 31  1  0  0  0  0
 34 37  1  0  0  0  0
 34 36  1  0  0  0  0
 34 35  1  0  0  0  0
 37 38  1  0  0  0  0
 39 37  1  0  0  0  0
 40 41  1  0  0  0  0
 40 37  1  0  0  0  0
 42 26  1  0  0  0  0
 42 43  1  0  0  0  0
 43 45  1  0  0  0  0
 43 44  1  0  0  0  0
 46 43  1  0  0  0  0
 46 47  1  0  0  0  0
 48 46  1  0  0  0  0
 49 46  1  0  0  0  0
 50 53  1  0  0  0  0
 50 49  1  0  0  0  0
 51 50  1  0  0  0  0
 52 50  1  0  0  0  0
 53 54  1  0  0  0  0
 53 42  1  0  0  0  0
 55 53  1  0  0  0  0
M  END
