2
 OpenBabel05122313113D

 21 20  0  0  0  0  0  0  0  0999 V2000
   10.7575   -0.0049    0.0432 Si  0  0  0  0  0  0  0  0  0  0  0  0
   -0.0788   -0.9422   -0.6081 C   0  0  0  0  0  3  0  0  0  0  0  0
    1.1855   -0.8682   -0.5763 C   0  0  0  0  0  0  0  0  0  0  0  0
    2.5184   -0.7574   -0.5187 C   0  0  0  0  0  0  0  0  0  0  0  0
    3.7713   -0.6441   -0.4422 C   0  0  0  0  0  0  0  0  0  0  0  0
    5.1001   -0.5233   -0.3560 C   0  0  0  0  0  0  0  0  0  0  0  0
    6.3484   -0.4086   -0.2700 C   0  0  0  0  0  0  0  0  0  0  0  0
    7.6880   -0.2857   -0.1752 C   0  0  0  0  0  0  0  0  0  0  0  0
    8.9295   -0.1717   -0.0860 C   0  0  0  0  0  0  0  0  0  0  0  0
   11.3528    1.1968   -1.2919 C   0  0  0  0  0  0  0  0  0  0  0  0
   11.1878    0.6636    1.7608 C   0  0  0  0  0  0  0  0  0  0  0  0
   11.5520   -1.7037   -0.2096 C   0  0  0  0  0  0  0  0  0  0  0  0
   11.0919    0.8255   -2.3034 H   0  0  0  0  0  0  0  0  0  0  0  0
   10.8868    2.1944   -1.1629 H   0  0  0  0  0  0  0  0  0  0  0  0
   12.4548    1.3190   -1.2411 H   0  0  0  0  0  0  0  0  0  0  0  0
   10.7203    1.6547    1.9282 H   0  0  0  0  0  0  0  0  0  0  0  0
   10.8287   -0.0226    2.5540 H   0  0  0  0  0  0  0  0  0  0  0  0
   12.2867    0.7750    1.8705 H   0  0  0  0  0  0  0  0  0  0  0  0
   12.6573   -1.6320   -0.1370 H   0  0  0  0  0  0  0  0  0  0  0  0
   11.2005   -2.4229    0.5573 H   0  0  0  0  0  0  0  0  0  0  0  0
   11.2963   -2.1153   -1.2067 H   0  0  0  0  0  0  0  0  0  0  0  0
  1 11  1  0  0  0  0
  2  3  3  0  0  0  0
  3  4  1  0  0  0  0
  4  5  3  0  0  0  0
  5  6  1  0  0  0  0
  6  7  3  0  0  0  0
  7  8  1  0  0  0  0
  8  9  3  0  0  0  0
  9  1  1  0  0  0  0
 10 15  1  0  0  0  0
 10 14  1  0  0  0  0
 10  1  1  0  0  0  0
 11 18  1  0  0  0  0
 11 16  1  0  0  0  0
 11 17  1  0  0  0  0
 12 19  1  0  0  0  0
 12  1  1  0  0  0  0
 12 20  1  0  0  0  0
 13 10  1  0  0  0  0
 21 12  1  0  0  0  0
M  END
