2
 OpenBabel05122313113D

 23 23  0  0  1  0  0  0  0  0999 V2000
   -1.5513    2.4391    0.0084 C   0  0  0  0  0  3  0  0  0  0  0  0
   -1.3737    1.0726   -0.0051 C   0  0  0  0  0  2  0  0  0  0  0  0
   -2.1149   -0.0438    0.5350 C   0  0  1  0  0  3  0  0  0  0  0  0
   -3.5761   -0.1997    0.2988 C   0  0  0  0  0  0  0  0  0  0  0  0
   -4.2366    0.5506   -0.7031 C   0  0  0  0  0  0  0  0  0  0  0  0
   -3.6536    1.2337   -1.3380 H   0  0  0  0  0  0  0  0  0  0  0  0
   -5.6194    0.4428   -0.8869 C   0  0  0  0  0  0  0  0  0  0  0  0
   -6.1117    1.0372   -1.6715 H   0  0  0  0  0  0  0  0  0  0  0  0
   -6.3778   -0.4119   -0.0690 C   0  0  0  0  0  0  0  0  0  0  0  0
   -7.4658   -0.4948   -0.2120 H   0  0  0  0  0  0  0  0  0  0  0  0
   -5.7383   -1.1454    0.9410 C   0  0  0  0  0  0  0  0  0  0  0  0
   -6.3243   -1.8031    1.6011 H   0  0  0  0  0  0  0  0  0  0  0  0
   -4.3525   -1.0392    1.1272 C   0  0  0  0  0  0  0  0  0  0  0  0
   -3.8669   -1.6045    1.9336 H   0  0  0  0  0  0  0  0  0  0  0  0
   -1.2430   -1.0280    1.1683 C   0  0  0  0  0  3  0  0  0  0  0  0
   -0.5352   -0.6353    1.9172 H   0  0  0  0  0  0  0  0  0  0  0  0
   -1.5896   -2.3978    1.3875 C   0  0  0  0  0  0  0  0  0  0  0  0
   -1.7860   -3.5911    1.6055 C   0  0  0  0  0  0  0  0  0  0  0  0
   -1.9914   -4.6348    1.7945 H   0  0  0  0  0  0  0  0  0  0  0  0
   -0.8511    3.2766   -0.9188 C   0  0  0  0  0  0  0  0  0  0  0  0
   -0.2814    3.9466   -1.6999 N   0  0  0  0  0  0  0  0  0  0  0  0
   -2.4456    3.0625    0.9403 C   0  0  0  0  0  0  0  0  0  0  0  0
   -3.1717    3.5578    1.7213 N   0  0  0  0  0  0  0  0  0  0  0  0
  1 22  1  0  0  0  0
  2  1  1  0  0  0  0
  3  2  1  6  0  0  0
  3 15  1  0  0  0  0
  4  3  1  0  0  0  0
  4 13  1  0  0  0  0
  5  4  2  0  0  0  0
  6  5  1  0  0  0  0
  7  5  1  0  0  0  0
  7  9  2  0  0  0  0
  8  7  1  0  0  0  0
  9 11  1  0  0  0  0
 10  9  1  0  0  0  0
 11 13  2  0  0  0  0
 11 12  1  0  0  0  0
 13 14  1  0  0  0  0
 15 17  1  0  0  0  0
 15 16  1  0  0  0  0
 17 18  3  0  0  0  0
 18 19  1  0  0  0  0
 20  1  1  0  0  0  0
 21 20  3  0  0  0  0
 22 23  3  0  0  0  0
M  END
