2
 OpenBabel05122313113D

 16 15  0  0  0  0  0  0  0  0999 V2000
    0.7611   -2.8732    1.4249 O   0  0  0  0  0  0  0  0  0  0  0  0
    0.7132   -1.8605    0.7170 C   0  0  0  0  0  3  0  0  0  0  0  0
    1.5098   -1.2102   -0.1170 N   0  0  0  0  0  2  0  0  0  0  0  0
    2.8202   -1.5809   -0.6611 C   0  0  0  0  0  0  0  0  0  0  0  0
    3.8153   -1.6232    0.5167 C   0  0  0  0  0  0  0  0  0  0  0  0
    3.8969   -0.6251    0.9927 H   0  0  0  0  0  0  0  0  0  0  0  0
    4.8233   -1.9293    0.1690 H   0  0  0  0  0  0  0  0  0  0  0  0
    3.4685   -2.3468    1.2803 H   0  0  0  0  0  0  0  0  0  0  0  0
    2.7156   -2.9771   -1.3088 C   0  0  0  0  0  0  0  0  0  0  0  0
    2.3495   -3.7133   -0.5668 H   0  0  0  0  0  0  0  0  0  0  0  0
    3.7053   -3.3112   -1.6820 H   0  0  0  0  0  0  0  0  0  0  0  0
    2.0089   -2.9614   -2.1617 H   0  0  0  0  0  0  0  0  0  0  0  0
    3.2655   -0.5470   -1.7011 C   0  0  0  0  0  0  0  0  0  0  0  0
    2.5265   -0.4742   -2.5227 H   0  0  0  0  0  0  0  0  0  0  0  0
    4.2422   -0.8373   -2.1375 H   0  0  0  0  0  0  0  0  0  0  0  0
    3.3750    0.4557   -1.2448 H   0  0  0  0  0  0  0  0  0  0  0  0
  2  1  2  0  0  0  0
  3  2  1  0  0  0  0
  4  3  1  0  0  0  0
  4  5  1  0  0  0  0
  5  6  1  0  0  0  0
  5  8  1  0  0  0  0
  7  5  1  0  0  0  0
  9  4  1  0  0  0  0
  9 10  1  0  0  0  0
 11  9  1  0  0  0  0
 12  9  1  0  0  0  0
 13 16  1  0  0  0  0
 13  4  1  0  0  0  0
 14 13  1  0  0  0  0
 15 13  1  0  0  0  0
M  END
