2
 OpenBabel05122313113D

 13 13  0  0  0  0  0  0  0  0999 V2000
   -0.0043    1.8189    0.2434 N   0  0  0  0  0  0  0  0  0  0  0  0
   -0.0013    1.3860   -1.0328 C   0  0  0  0  0  3  0  0  0  0  0  0
   -0.0014    2.3054   -2.0902 C   0  0  0  0  0  0  0  0  0  0  0  0
   -0.0005    1.9730   -3.1382 H   0  0  0  0  0  0  0  0  0  0  0  0
    0.0032    3.6763   -1.7565 C   0  0  0  0  0  0  0  0  0  0  0  0
    0.0104    4.4351   -2.5558 H   0  0  0  0  0  0  0  0  0  0  0  0
    0.0021    4.0861   -0.4174 C   0  0  0  0  0  0  0  0  0  0  0  0
    0.0082    5.1524   -0.1497 H   0  0  0  0  0  0  0  0  0  0  0  0
   -0.0071    3.1062    0.6103 C   0  0  0  0  0  0  0  0  0  0  0  0
   -0.0484    3.4630    2.0695 C   0  0  0  0  0  0  0  0  0  0  0  0
    0.4191    2.6681    2.6790 H   0  0  0  0  0  0  0  0  0  0  0  0
   -1.0973    3.5736    2.4171 H   0  0  0  0  0  0  0  0  0  0  0  0
    0.4690    4.4225    2.2630 H   0  0  0  0  0  0  0  0  0  0  0  0
  1  9  1  0  0  0  0
  2  1  2  0  0  0  0
  3  5  2  0  0  0  0
  3  2  1  0  0  0  0
  4  3  1  0  0  0  0
  5  7  1  0  0  0  0
  6  5  1  0  0  0  0
  7  8  1  0  0  0  0
  7  9  2  0  0  0  0
  9 10  1  0  0  0  0
 10 13  1  0  0  0  0
 10 12  1  0  0  0  0
 10 11  1  0  0  0  0
M  END
