2
 OpenBabel05122313113D

 16 16  0  0  1  0  0  0  0  0999 V2000
   -1.3425    0.7640   -0.7677 C   0  0  0  0  0  0  0  0  0  0  0  0
   -1.3309   -0.7023   -0.8078 C   0  0  1  0  0  3  0  0  0  0  0  0
   -0.3395   -1.1009   -1.7800 C   0  0  0  0  0  0  0  0  0  0  0  0
   -0.1055   -2.1402   -2.0391 H   0  0  0  0  0  0  0  0  0  0  0  0
    0.2404    0.0727   -2.3469 C   0  0  0  0  0  0  0  0  0  0  0  0
    1.0061    0.0996   -3.1305 H   0  0  0  0  0  0  0  0  0  0  0  0
   -0.3730    1.2109   -1.7171 C   0  0  0  0  0  0  0  0  0  0  0  0
   -0.1783    2.2727   -1.9090 H   0  0  0  0  0  0  0  0  0  0  0  0
   -2.1576    1.7840    0.0124 C   0  0  0  0  0  0  0  0  0  0  0  0
   -2.1479   -1.6274   -0.0077 C   0  0  0  0  0  0  0  0  0  0  0  0
   -1.9839    2.9688   -0.2036 O   0  0  0  0  0  0  0  0  0  0  0  0
   -3.0276    1.3314    0.9097 O   0  0  0  0  0  0  0  0  0  0  0  0
   -3.0597    0.3236    0.9330 H   0  0  0  0  0  0  0  0  0  0  0  0
   -2.9959   -1.2868    0.8204 O   0  0  0  0  0  0  0  0  0  0  0  0
   -1.8936   -2.9209   -0.2692 O   0  0  0  0  0  0  0  0  0  0  0  0
   -2.4750   -3.4416    0.3269 H   0  0  0  0  0  0  0  0  0  0  0  0
  1  9  1  0  0  0  0
  2  1  1  0  0  0  0
  2 10  1  1  0  0  0
  3  2  1  0  0  0  0
  4  3  1  0  0  0  0
  5  3  2  0  0  0  0
  5  7  1  0  0  0  0
  6  5  1  0  0  0  0
  7  1  2  0  0  0  0
  8  7  1  0  0  0  0
  9 12  1  0  0  0  0
 10 14  2  0  0  0  0
 11  9  2  0  0  0  0
 12 13  1  0  0  0  0
 15 10  1  0  0  0  0
 15 16  1  0  0  0  0
M  END
