5
 OpenBabel05122313113D

 14 14  0  0  0  0  0  0  0  0999 V2000
    7.8819    0.6027    0.2089 O   0  0  0  0  0  0  0  0  0  0  0  0
    7.3005   -1.4455   -0.3037 O   0  0  0  0  0  0  0  0  0  0  0  0
    7.0409   -0.2677   -0.0349 N   0  0  0  0  0  0  0  0  0  0  0  0
    4.0022    1.8671    0.3322 N   0  0  0  0  0  0  0  0  0  0  0  0
    0.4398    1.6177    0.0694 C   0  0  0  0  0  3  0  0  0  0  0  0
    1.6619    1.3807    0.1043 C   0  0  0  0  0  0  0  0  0  0  0  0
    3.0157    0.9594    0.0754 C   0  0  0  0  0  0  0  0  0  0  0  0
    3.3071   -0.4066   -0.2304 C   0  0  0  0  0  0  0  0  0  0  0  0
    4.6303   -0.8287   -0.2715 C   0  0  0  0  0  0  0  0  0  0  0  0
    5.6289    0.1229   -0.0040 C   0  0  0  0  0  0  0  0  0  0  0  0
    5.2670    1.4509    0.2914 C   0  0  0  0  0  0  0  0  0  0  0  0
    2.4808   -1.1015   -0.4349 H   0  0  0  0  0  0  0  0  0  0  0  0
    4.9200   -1.8626   -0.5039 H   0  0  0  0  0  0  0  0  0  0  0  0
    6.0629    2.1859    0.4994 H   0  0  0  0  0  0  0  0  0  0  0  0
  2  3  2  0  0  0  0
  3 10  1  0  0  0  0
  3  1  2  0  0  0  0
  5  6  3  0  0  0  0
  7  6  1  0  0  0  0
  7  4  2  0  0  0  0
  8  7  1  0  0  0  0
  9  8  2  0  0  0  0
  9 10  1  0  0  0  0
 10 11  2  0  0  0  0
 11  4  1  0  0  0  0
 11 14  1  0  0  0  0
 12  8  1  0  0  0  0
 13  9  1  0  0  0  0
M  END
