2
 OpenBabel05122313113D

 20 20  0  0  0  0  0  0  0  0999 V2000
    3.0414    1.9767    1.1164 P   0  0  0  0  0  0  0  0  0  0  0  0
    1.6058    1.0089    0.6639 C   0  0  0  0  0  1  0  0  0  0  0  0
    4.4937    0.8436    0.6862 C   0  0  0  0  0  0  0  0  0  0  0  0
    4.5027   -0.4918    1.4456 C   0  0  0  0  0  0  0  0  0  0  0  0
    5.6971   -1.3669    1.0360 C   0  0  0  0  0  0  0  0  0  0  0  0
    5.7388   -1.5829   -0.4824 C   0  0  0  0  0  0  0  0  0  0  0  0
    5.7595   -0.2430   -1.2290 C   0  0  0  0  0  0  0  0  0  0  0  0
    4.5622    0.6346   -0.8373 C   0  0  0  0  0  0  0  0  0  0  0  0
    3.0059    1.7205    2.5376 H   0  0  0  0  0  0  0  0  0  0  0  0
    5.3838    1.4402    0.9968 H   0  0  0  0  0  0  0  0  0  0  0  0
    3.5577   -1.0311    1.2274 H   0  0  0  0  0  0  0  0  0  0  0  0
    4.5137   -0.3060    2.5405 H   0  0  0  0  0  0  0  0  0  0  0  0
    5.6508   -2.3404    1.5683 H   0  0  0  0  0  0  0  0  0  0  0  0
    6.6418   -0.8756    1.3632 H   0  0  0  0  0  0  0  0  0  0  0  0
    6.6211   -2.1962   -0.7621 H   0  0  0  0  0  0  0  0  0  0  0  0
    4.8382   -2.1580   -0.7910 H   0  0  0  0  0  0  0  0  0  0  0  0
    5.7600   -0.4076   -2.3270 H   0  0  0  0  0  0  0  0  0  0  0  0
    6.7050    0.2960   -0.9920 H   0  0  0  0  0  0  0  0  0  0  0  0
    3.6254    0.1416   -1.1746 H   0  0  0  0  0  0  0  0  0  0  0  0
    4.6036    1.6140   -1.3587 H   0  0  0  0  0  0  0  0  0  0  0  0
  1  9  1  0  0  0  0
  2  1  1  0  0  0  0
  3 10  1  0  0  0  0
  3  1  1  0  0  0  0
  3  4  1  0  0  0  0
  4 12  1  0  0  0  0
  5 14  1  0  0  0  0
  5  4  1  0  0  0  0
  5 13  1  0  0  0  0
  6  5  1  0  0  0  0
  7 18  1  0  0  0  0
  7  8  1  0  0  0  0
  7  6  1  0  0  0  0
  8  3  1  0  0  0  0
 11  4  1  0  0  0  0
 15  6  1  0  0  0  0
 16  6  1  0  0  0  0
 17  7  1  0  0  0  0
 19  8  1  0  0  0  0
 20  8  1  0  0  0  0
M  END
