14
 OpenBabel05122313113D

 14 14  0  0  0  0  0  0  0  0999 V2000
    0.6384   -1.4167   -1.3328 F   0  0  0  0  0  0  0  0  0  0  0  0
    3.0258   -1.6519   -2.6015 F   0  0  0  0  0  0  0  0  0  0  0  0
    5.3390   -0.9152   -1.3153 F   0  0  0  0  0  0  0  0  0  0  0  0
    5.2254    0.0682    1.2338 F   0  0  0  0  0  0  0  0  0  0  0  0
    2.8854    0.2788    2.5228 F   0  0  0  0  0  0  0  0  0  0  0  0
   -0.1669   -1.7914    1.5002 F   0  0  0  0  0  0  0  0  0  0  0  0
    0.3195    0.1076    2.4892 F   0  0  0  0  0  0  0  0  0  0  0  0
    1.7744   -1.0987   -0.6623 C   0  0  0  0  0  0  0  0  0  0  0  0
    2.9878   -1.2063   -1.3471 C   0  0  0  0  0  0  0  0  0  0  0  0
    4.1727   -0.8191   -0.6909 C   0  0  0  0  0  0  0  0  0  0  0  0
    4.1096   -0.3057    0.6159 C   0  0  0  0  0  0  0  0  0  0  0  0
    2.8708   -0.2110    1.2824 C   0  0  0  0  0  0  0  0  0  0  0  0
    1.6713   -0.5896    0.6467 C   0  0  0  0  0  0  0  0  0  0  0  0
    0.2864   -0.4808    1.2513 C   0  0  0  0  0  0  0  0  0  0  0  0
  1  8  1  0  0  0  0
  2  9  1  0  0  0  0
  3 10  1  0  0  0  0
  8 13  1  0  0  0  0
  9 10  1  0  0  0  0
  9  8  2  0  0  0  0
 10 11  2  0  0  0  0
 11  4  1  0  0  0  0
 11 12  1  0  0  0  0
 12  5  1  0  0  0  0
 13 14  1  0  0  0  0
 13 12  2  0  0  0  0
 14  6  1  0  0  0  0
 14  7  1  0  0  0  0
M  END
