1
 OpenBabel05122313113D

 10  9  0  0  0  0  0  0  0  0999 V2000
    0.0001   -1.6798   -0.0001 C   0  0  0  0  0  1  0  0  0  0  0  0
    0.0001   -3.0205   -0.0001 C   0  0  0  0  0  3  0  0  0  0  0  0
    0.0411   -3.8006    1.2948 C   0  0  0  0  0  0  0  0  0  0  0  0
    0.1427   -3.1370    2.1750 H   0  0  0  0  0  0  0  0  0  0  0  0
    0.8981   -4.5115    1.3040 H   0  0  0  0  0  0  0  0  0  0  0  0
   -0.8829   -4.4076    1.4296 H   0  0  0  0  0  0  0  0  0  0  0  0
   -0.0408   -3.8007   -1.2949 C   0  0  0  0  0  0  0  0  0  0  0  0
   -0.1425   -3.1372   -2.1752 H   0  0  0  0  0  0  0  0  0  0  0  0
   -0.8978   -4.5116   -1.3040 H   0  0  0  0  0  0  0  0  0  0  0  0
    0.8832   -4.4077   -1.4297 H   0  0  0  0  0  0  0  0  0  0  0  0
  1  2  1  0  0  0  0
  2  3  1  0  0  0  0
  3  5  1  0  0  0  0
  3  6  1  0  0  0  0
  3  4  1  0  0  0  0
  7  2  1  0  0  0  0
  8  7  1  0  0  0  0
  9  7  1  0  0  0  0
 10  7  1  0  0  0  0
M  END
