31
 OpenBabel05122313113D

 39 41  0  0  1  0  0  0  0  0999 V2000
   -2.5271    0.6130   -0.8377 C   0  0  1  0  0  0  0  0  0  0  0  0
   -2.6332    0.7023   -1.9452 H   0  0  0  0  0  0  0  0  0  0  0  0
   -1.4897   -0.5125   -0.6139 C   0  0  2  0  0  0  0  0  0  0  0  0
   -0.5586   -0.2984   -1.1816 H   0  0  0  0  0  0  0  0  0  0  0  0
   -2.0969   -1.8334   -1.1053 C   0  0  0  0  0  0  0  0  0  0  0  0
   -2.1641   -1.8009   -2.2178 H   0  0  0  0  0  0  0  0  0  0  0  0
   -1.4329   -2.6753   -0.8301 H   0  0  0  0  0  0  0  0  0  0  0  0
   -3.3644   -2.0583   -0.5016 O   0  0  0  0  0  0  0  0  0  0  0  0
   -4.3111   -1.0111   -0.7001 C   0  0  0  0  0  0  0  0  0  0  0  0
   -3.7713    0.2451   -0.2482 O   0  0  0  0  0  0  0  0  0  0  0  0
   -4.7692   -0.9205   -2.1633 C   0  0  0  0  0  0  0  0  0  0  0  0
   -5.5179   -0.1129   -2.2709 H   0  0  0  0  0  0  0  0  0  0  0  0
   -5.2284   -1.8805   -2.4663 H   0  0  0  0  0  0  0  0  0  0  0  0
   -3.9401   -0.7104   -2.8648 H   0  0  0  0  0  0  0  0  0  0  0  0
   -5.4763   -1.3141    0.2309 C   0  0  0  0  0  0  0  0  0  0  0  0
   -6.2299   -0.5069    0.1734 H   0  0  0  0  0  0  0  0  0  0  0  0
   -5.1127   -1.3941    1.2729 H   0  0  0  0  0  0  0  0  0  0  0  0
   -5.9435   -2.2759   -0.0510 H   0  0  0  0  0  0  0  0  0  0  0  0
   -2.0897    1.9590   -0.3063 C   0  0  0  0  0  0  0  0  0  0  0  0
   -2.5115    2.4261    0.9515 C   0  0  0  0  0  0  0  0  0  0  0  0
   -3.2220    1.8243    1.5344 H   0  0  0  0  0  0  0  0  0  0  0  0
   -2.0448    3.6555    1.4421 C   0  0  0  0  0  0  0  0  0  0  0  0
   -2.3803    4.0107    2.4283 H   0  0  0  0  0  0  0  0  0  0  0  0
   -1.1590    4.4323    0.6796 C   0  0  0  0  0  0  0  0  0  0  0  0
   -0.7954    5.3967    1.0653 H   0  0  0  0  0  0  0  0  0  0  0  0
   -0.7461    3.9774   -0.5831 C   0  0  0  0  0  0  0  0  0  0  0  0
   -0.0605    4.5853   -1.1928 H   0  0  0  0  0  0  0  0  0  0  0  0
   -1.2100    2.7479   -1.0717 C   0  0  0  0  0  0  0  0  0  0  0  0
   -0.8804    2.3923   -2.0616 H   0  0  0  0  0  0  0  0  0  0  0  0
   -1.0593   -0.6242    0.7797 N   0  0  0  0  0  0  0  0  0  0  0  0
    0.2629   -0.7230    1.1557 C   0  0  0  0  0  2  0  0  0  0  0  0
    0.1747   -0.9557    2.4901 N   0  0  0  0  0  0  0  0  0  0  0  0
   -1.1094   -1.0103    2.9663 N   0  0  0  0  0  0  0  0  0  0  0  0
   -1.8458   -0.8111    1.8992 C   0  0  0  0  0  0  0  0  0  0  0  0
   -2.9377   -0.7880    1.8767 H   0  0  0  0  0  0  0  0  0  0  0  0
    1.2772   -1.2305    3.3906 C   0  0  0  0  0  0  0  0  0  0  0  0
    1.0962   -2.1931    3.9054 H   0  0  0  0  0  0  0  0  0  0  0  0
    1.3733   -0.4260    4.1460 H   0  0  0  0  0  0  0  0  0  0  0  0
    2.1979   -1.3009    2.7836 H   0  0  0  0  0  0  0  0  0  0  0  0
  1  2  1  6  0  0  0
  1  3  1  0  0  0  0
  1 19  1  0  0  0  0
  1 10  1  0  0  0  0
  3  4  1  6  0  0  0
  3 30  1  0  0  0  0
  5  7  1  0  0  0  0
  5  3  1  0  0  0  0
  5  8  1  0  0  0  0
  6  5  1  0  0  0  0
  9  8  1  0  0  0  0
  9 10  1  0  0  0  0
  9 15  1  0  0  0  0
 11  9  1  0  0  0  0
 12 11  1  0  0  0  0
 13 11  1  0  0  0  0
 14 11  1  0  0  0  0
 15 17  1  0  0  0  0
 16 15  1  0  0  0  0
 18 15  1  0  0  0  0
 19 20  1  0  0  0  0
 20 22  2  0  0  0  0
 20 21  1  0  0  0  0
 22 23  1  0  0  0  0
 24 25  1  0  0  0  0
 24 22  1  0  0  0  0
 26 24  2  0  0  0  0
 27 26  1  0  0  0  0
 28 26  1  0  0  0  0
 28 19  2  0  0  0  0
 29 28  1  0  0  0  0
 30 31  1  0  0  0  0
 30 34  1  0  0  0  0
 31 32  1  0  0  0  0
 32 33  1  0  0  0  0
 32 36  1  0  0  0  0
 34 33  2  0  0  0  0
 35 34  1  0  0  0  0
 36 37  1  0  0  0  0
 36 38  1  0  0  0  0
 39 36  1  0  0  0  0
M  END
