7
 OpenBabel05122313113D

 60 63  0  0  1  0  0  0  0  0999 V2000
   -0.8684    1.3200    1.2525 P   0  0  0  0  0  0  0  0  0  0  0  0
   -0.6166   -1.2475    2.7452 N   0  0  0  0  0  0  0  0  0  0  0  0
    2.5558   -2.6004    0.8685 O   0  0  0  0  0  0  0  0  0  0  0  0
    0.4797    0.3704   -1.1463 C   0  0  0  0  0  3  0  0  0  0  0  0
    0.0265    1.2456   -1.6345 H   0  0  0  0  0  0  0  0  0  0  0  0
    0.2575    0.1998    0.2419 C   0  0  1  0  0  3  0  0  0  0  0  0
    0.9855   -0.8296    0.9500 C   0  0  2  0  0  3  0  0  0  0  0  0
    1.8619   -1.6677    0.1681 C   0  0  1  0  0  3  0  0  0  0  0  0
    2.0472   -1.3962   -1.2145 C   0  0  0  0  0  3  0  0  0  0  0  0
    2.8433   -1.9304   -1.7507 H   0  0  0  0  0  0  0  0  0  0  0  0
    0.8954   -0.8178   -2.0070 C   0  0  1  0  0  0  0  0  0  0  0  0
    1.2979   -0.4138   -2.9583 H   0  0  0  0  0  0  0  0  0  0  0  0
    3.5619   -3.3523    0.2035 C   0  0  0  0  0  0  0  0  0  0  0  0
    3.1554   -3.8938   -0.6781 H   0  0  0  0  0  0  0  0  0  0  0  0
    3.9339   -4.0845    0.9429 H   0  0  0  0  0  0  0  0  0  0  0  0
    4.4054   -2.7048   -0.1177 H   0  0  0  0  0  0  0  0  0  0  0  0
    0.7889   -1.0311    2.4384 C   0  0  0  0  0  0  0  0  0  0  0  0
    1.4545   -1.8547    2.7956 H   0  0  0  0  0  0  0  0  0  0  0  0
    1.1024   -0.1053    2.9621 H   0  0  0  0  0  0  0  0  0  0  0  0
   -0.9731   -0.9665    4.1184 C   0  0  0  0  0  0  0  0  0  0  0  0
   -2.0760   -1.0140    4.2296 H   0  0  0  0  0  0  0  0  0  0  0  0
   -0.6491    0.0605    4.3848 H   0  0  0  0  0  0  0  0  0  0  0  0
   -0.5212   -1.6804    4.8569 H   0  0  0  0  0  0  0  0  0  0  0  0
   -1.1363   -2.5055    2.2530 C   0  0  0  0  0  0  0  0  0  0  0  0
   -0.7016   -3.3974    2.7778 H   0  0  0  0  0  0  0  0  0  0  0  0
   -0.9226   -2.6075    1.1700 H   0  0  0  0  0  0  0  0  0  0  0  0
   -2.2379   -2.5295    2.3731 H   0  0  0  0  0  0  0  0  0  0  0  0
   -2.4729    0.4070    1.0950 C   0  0  0  0  0  0  0  0  0  0  0  0
   -3.4628    0.7161    2.0527 C   0  0  0  0  0  0  0  0  0  0  0  0
   -3.2453    1.4638    2.8323 H   0  0  0  0  0  0  0  0  0  0  0  0
   -4.7107    0.0758    2.0244 C   0  0  0  0  0  0  0  0  0  0  0  0
   -5.4719    0.3294    2.7784 H   0  0  0  0  0  0  0  0  0  0  0  0
   -4.9869   -0.8881    1.0402 C   0  0  0  0  0  0  0  0  0  0  0  0
   -5.9644   -1.3939    1.0204 H   0  0  0  0  0  0  0  0  0  0  0  0
   -4.0085   -1.2017    0.0837 C   0  0  0  0  0  0  0  0  0  0  0  0
   -4.2073   -1.9547   -0.6942 H   0  0  0  0  0  0  0  0  0  0  0  0
   -2.7612   -0.5574    0.1078 C   0  0  0  0  0  0  0  0  0  0  0  0
   -2.0099   -0.8196   -0.6491 H   0  0  0  0  0  0  0  0  0  0  0  0
   -1.1438    2.6913    0.0224 C   0  0  0  0  0  0  0  0  0  0  0  0
   -2.0981    2.6360   -1.0172 C   0  0  0  0  0  0  0  0  0  0  0  0
   -2.7259    1.7399   -1.1347 H   0  0  0  0  0  0  0  0  0  0  0  0
   -2.2560    3.7157   -1.8998 C   0  0  0  0  0  0  0  0  0  0  0  0
   -3.0062    3.6575   -2.7037 H   0  0  0  0  0  0  0  0  0  0  0  0
   -1.4637    4.8663   -1.7584 C   0  0  0  0  0  0  0  0  0  0  0  0
   -1.5880    5.7121   -2.4519 H   0  0  0  0  0  0  0  0  0  0  0  0
   -0.5202    4.9369   -0.7216 C   0  0  0  0  0  0  0  0  0  0  0  0
    0.0985    5.8389   -0.5971 H   0  0  0  0  0  0  0  0  0  0  0  0
   -0.3682    3.8622    0.1679 C   0  0  0  0  0  0  0  0  0  0  0  0
    0.3625    3.9319    0.9872 H   0  0  0  0  0  0  0  0  0  0  0  0
   -0.2701   -1.7421   -2.3484 C   0  0  0  0  0  0  0  0  0  0  0  0
   -1.2511   -1.2924   -3.2575 C   0  0  0  0  0  0  0  0  0  0  0  0
   -1.1242   -0.3132   -3.7470 H   0  0  0  0  0  0  0  0  0  0  0  0
   -2.3889   -2.0642   -3.5293 C   0  0  0  0  0  0  0  0  0  0  0  0
   -3.1462   -1.6936   -4.2370 H   0  0  0  0  0  0  0  0  0  0  0  0
   -2.5622   -3.3090   -2.9002 C   0  0  0  0  0  0  0  0  0  0  0  0
   -3.4550   -3.9170   -3.1113 H   0  0  0  0  0  0  0  0  0  0  0  0
   -1.5860   -3.7734   -2.0061 C   0  0  0  0  0  0  0  0  0  0  0  0
   -1.7103   -4.7491   -1.5118 H   0  0  0  0  0  0  0  0  0  0  0  0
   -0.4493   -2.9947   -1.7327 C   0  0  0  0  0  0  0  0  0  0  0  0
    0.3066   -3.3664   -1.0251 H   0  0  0  0  0  0  0  0  0  0  0  0
  2 20  1  0  0  0  0
  4  6  1  0  0  0  0
  5  4  1  0  0  0  0
  6  7  1  0  0  0  0
  6  1  1  1  0  0  0
  7 17  1  6  0  0  0
  8  3  1  1  0  0  0
  8  7  1  0  0  0  0
  9  8  1  0  0  0  0
 10  9  1  0  0  0  0
 11 12  1  6  0  0  0
 11  9  1  0  0  0  0
 11  4  1  0  0  0  0
 13  3  1  0  0  0  0
 13 15  1  0  0  0  0
 14 13  1  0  0  0  0
 16 13  1  0  0  0  0
 17  2  1  0  0  0  0
 17 18  1  0  0  0  0
 17 19  1  0  0  0  0
 20 21  1  0  0  0  0
 20 22  1  0  0  0  0
 20 23  1  0  0  0  0
 24 27  1  0  0  0  0
 24  2  1  0  0  0  0
 24 25  1  0  0  0  0
 26 24  1  0  0  0  0
 28  1  1  0  0  0  0
 28 29  1  0  0  0  0
 29 30  1  0  0  0  0
 31 29  2  0  0  0  0
 31 32  1  0  0  0  0
 33 31  1  0  0  0  0
 34 33  1  0  0  0  0
 35 37  1  0  0  0  0
 35 33  2  0  0  0  0
 36 35  1  0  0  0  0
 37 28  2  0  0  0  0
 38 37  1  0  0  0  0
 39 48  1  0  0  0  0
 39  1  1  0  0  0  0
 40 39  2  0  0  0  0
 41 40  1  0  0  0  0
 42 44  2  0  0  0  0
 42 40  1  0  0  0  0
 43 42  1  0  0  0  0
 44 46  1  0  0  0  0
 45 44  1  0  0  0  0
 46 47  1  0  0  0  0
 46 48  2  0  0  0  0
 48 49  1  0  0  0  0
 50 11  1  0  0  0  0
 50 59  1  0  0  0  0
 51 50  2  0  0  0  0
 52 51  1  0  0  0  0
 53 51  1  0  0  0  0
 53 55  2  0  0  0  0
 54 53  1  0  0  0  0
 55 57  1  0  0  0  0
 56 55  1  0  0  0  0
 57 59  2  0  0  0  0
 57 58  1  0  0  0  0
 59 60  1  0  0  0  0
M  END
