1
 OpenBabel05122313113D

 46 47  0  0  0  0  0  0  0  0999 V2000
   -0.6082   -1.4606   -0.2179 C   0  0  0  0  0  3  0  0  0  0  0  0
   -1.1168   -3.1266   -0.1857 S   0  0  0  0  0  0  0  0  0  0  0  0
    0.3534   -4.2425   -0.2328 C   0  0  0  0  0  0  0  0  0  0  0  0
   -0.0850   -5.2147   -0.5387 H   0  0  0  0  0  0  0  0  0  0  0  0
    1.0230   -3.9261   -1.0597 H   0  0  0  0  0  0  0  0  0  0  0  0
    1.0825   -4.3608    1.1032 C   0  0  0  0  0  0  0  0  0  0  0  0
    1.9325   -5.0711    1.0265 H   0  0  0  0  0  0  0  0  0  0  0  0
    0.3999   -4.7261    1.8956 H   0  0  0  0  0  0  0  0  0  0  0  0
    1.4803   -3.3818    1.4382 H   0  0  0  0  0  0  0  0  0  0  0  0
    0.7653   -1.2166   -0.3604 C   0  0  0  0  0  0  0  0  0  0  0  0
    1.4469   -2.0709   -0.4855 H   0  0  0  0  0  0  0  0  0  0  0  0
    1.4588    0.0267   -0.4151 C   0  0  0  0  0  0  0  0  0  0  0  0
    2.9226    0.0442   -0.4888 C   0  0  0  0  0  0  0  0  0  0  0  0
    3.3770    0.9580   -0.9013 H   0  0  0  0  0  0  0  0  0  0  0  0
    3.7376   -0.9589   -0.0591 C   0  0  0  0  0  0  0  0  0  0  0  0
    3.2733   -1.8413    0.4126 H   0  0  0  0  0  0  0  0  0  0  0  0
    5.1972   -0.9917   -0.1165 C   0  0  0  0  0  0  0  0  0  0  0  0
    5.8739   -2.0987    0.4525 C   0  0  0  0  0  0  0  0  0  0  0  0
    5.2821   -2.9016    0.9197 H   0  0  0  0  0  0  0  0  0  0  0  0
    7.2713   -2.1824    0.4304 C   0  0  0  0  0  0  0  0  0  0  0  0
    7.7756   -3.0513    0.8792 H   0  0  0  0  0  0  0  0  0  0  0  0
    8.0257   -1.1585   -0.1633 C   0  0  0  0  0  0  0  0  0  0  0  0
    9.1242   -1.2203   -0.1831 H   0  0  0  0  0  0  0  0  0  0  0  0
    7.3709   -0.0523   -0.7355 C   0  0  0  0  0  0  0  0  0  0  0  0
    7.9582    0.7513   -1.2049 H   0  0  0  0  0  0  0  0  0  0  0  0
    5.9760    0.0313   -0.7142 C   0  0  0  0  0  0  0  0  0  0  0  0
    5.4819    0.9011   -1.1721 H   0  0  0  0  0  0  0  0  0  0  0  0
    0.8170    1.2068   -0.4331 N   0  0  0  0  0  4  0  0  0  0  0  0
   -0.2123    1.1303   -0.3772 H   0  0  0  0  0  0  0  0  0  0  0  0
    1.3886    2.5458   -0.3181 C   0  0  0  0  0  0  0  0  0  0  0  0
    2.2436    2.6249   -1.0289 H   0  0  0  0  0  0  0  0  0  0  0  0
    0.3406    3.5859   -0.7415 C   0  0  0  0  0  0  0  0  0  0  0  0
   -0.0009    3.3740   -1.7748 H   0  0  0  0  0  0  0  0  0  0  0  0
   -0.5497    3.4784   -0.0831 H   0  0  0  0  0  0  0  0  0  0  0  0
    0.8936    5.0110   -0.6235 C   0  0  0  0  0  0  0  0  0  0  0  0
    0.1062    5.7406   -0.9032 H   0  0  0  0  0  0  0  0  0  0  0  0
    1.7175    5.1463   -1.3603 H   0  0  0  0  0  0  0  0  0  0  0  0
    1.4231    5.2983    0.7872 C   0  0  0  0  0  0  0  0  0  0  0  0
    1.8502    6.3213    0.8391 H   0  0  0  0  0  0  0  0  0  0  0  0
    0.5752    5.2734    1.5074 H   0  0  0  0  0  0  0  0  0  0  0  0
    2.4694    4.2585    1.2086 C   0  0  0  0  0  0  0  0  0  0  0  0
    2.8178    4.4502    2.2445 H   0  0  0  0  0  0  0  0  0  0  0  0
    3.3670    4.3556    0.5559 H   0  0  0  0  0  0  0  0  0  0  0  0
    1.9157    2.8328    1.1025 C   0  0  0  0  0  0  0  0  0  0  0  0
    2.6909    2.0847    1.3700 H   0  0  0  0  0  0  0  0  0  0  0  0
    1.0757    2.6939    1.8157 H   0  0  0  0  0  0  0  0  0  0  0  0
  1  2  1  0  0  0  0
  3  2  1  0  0  0  0
  3  6  1  0  0  0  0
  4  3  1  0  0  0  0
  5  3  1  0  0  0  0
  6  9  1  0  0  0  0
  6  8  1  0  0  0  0
  7  6  1  0  0  0  0
 10  1  2  0  0  0  0
 11 10  1  0  0  0  0
 12 10  1  0  0  0  0
 13 12  1  0  0  0  0
 13 15  2  0  0  0  0
 14 13  1  0  0  0  0
 15 16  1  0  0  0  0
 17 15  1  0  0  0  0
 17 18  1  0  0  0  0
 18 19  1  0  0  0  0
 20 18  2  0  0  0  0
 20 21  1  0  0  0  0
 22 20  1  0  0  0  0
 23 22  1  0  0  0  0
 24 26  1  0  0  0  0
 24 22  2  0  0  0  0
 25 24  1  0  0  0  0
 26 17  2  0  0  0  0
 27 26  1  0  0  0  0
 28 12  2  0  0  0  0
 28 29  1  0  0  0  0
 28 30  1  0  0  0  0
 30 44  1  0  0  0  0
 31 30  1  0  0  0  0
 32 35  1  0  0  0  0
 32 30  1  0  0  0  0
 32 34  1  0  0  0  0
 33 32  1  0  0  0  0
 35 38  1  0  0  0  0
 36 35  1  0  0  0  0
 37 35  1  0  0  0  0
 38 39  1  0  0  0  0
 38 41  1  0  0  0  0
 38 40  1  0  0  0  0
 41 42  1  0  0  0  0
 43 41  1  0  0  0  0
 44 41  1  0  0  0  0
 44 45  1  0  0  0  0
 44 46  1  0  0  0  0
M  END
