1
 OpenBabel05122313113D

 25 26  0  0  0  0  0  0  0  0999 V2000
    0.3172    1.1349   -0.0776 C   0  0  0  0  0  2  0  0  0  0  0  0
    1.5921    0.5407   -0.0593 C   0  0  0  0  0  0  0  0  0  0  0  0
    2.7283    0.0364   -0.0655 C   0  0  0  0  0  0  0  0  0  0  0  0
    4.0659   -0.4471   -0.0788 C   0  0  0  0  0  0  0  0  0  0  0  0
    5.1432    0.4598   -0.2787 C   0  0  0  0  0  0  0  0  0  0  0  0
    6.4646    0.0027   -0.2932 C   0  0  0  0  0  0  0  0  0  0  0  0
    6.7460   -1.3618   -0.1070 C   0  0  0  0  0  0  0  0  0  0  0  0
    5.6925   -2.2701    0.0928 C   0  0  0  0  0  0  0  0  0  0  0  0
    4.3669   -1.8241    0.1059 C   0  0  0  0  0  0  0  0  0  0  0  0
    0.3582    2.6271   -0.0407 C   0  0  0  0  0  0  0  0  0  0  0  0
   -0.7094    3.4300   -0.5107 C   0  0  0  0  0  0  0  0  0  0  0  0
   -0.6543    4.8261   -0.4369 C   0  0  0  0  0  0  0  0  0  0  0  0
    0.4637    5.4666    0.1232 C   0  0  0  0  0  0  0  0  0  0  0  0
    1.5338    4.6912    0.5967 C   0  0  0  0  0  0  0  0  0  0  0  0
    1.4864    3.2952    0.5037 C   0  0  0  0  0  0  0  0  0  0  0  0
    4.9160    1.5259   -0.4251 H   0  0  0  0  0  0  0  0  0  0  0  0
    7.2862    0.7179   -0.4509 H   0  0  0  0  0  0  0  0  0  0  0  0
    7.7873   -1.7176   -0.1179 H   0  0  0  0  0  0  0  0  0  0  0  0
    5.9080   -3.3394    0.2392 H   0  0  0  0  0  0  0  0  0  0  0  0
    3.5442   -2.5358    0.2616 H   0  0  0  0  0  0  0  0  0  0  0  0
   -1.5879    2.9491   -0.9571 H   0  0  0  0  0  0  0  0  0  0  0  0
   -1.4957    5.4216   -0.8228 H   0  0  0  0  0  0  0  0  0  0  0  0
    0.5011    6.5648    0.1870 H   0  0  0  0  0  0  0  0  0  0  0  0
    2.4156    5.1783    1.0408 H   0  0  0  0  0  0  0  0  0  0  0  0
    2.3290    2.6944    0.8767 H   0  0  0  0  0  0  0  0  0  0  0  0
  1  2  1  0  0  0  0
  1 10  1  0  0  0  0
  3  2  3  0  0  0  0
  4  3  1  0  0  0  0
  4  9  1  0  0  0  0
  5  4  2  0  0  0  0
  6  5  1  0  0  0  0
  6  7  2  0  0  0  0
  7  8  1  0  0  0  0
  8  9  2  0  0  0  0
  8 19  1  0  0  0  0
  9 20  1  0  0  0  0
 10 15  1  0  0  0  0
 11 12  1  0  0  0  0
 11 10  2  0  0  0  0
 12 13  2  0  0  0  0
 13 23  1  0  0  0  0
 13 14  1  0  0  0  0
 14 24  1  0  0  0  0
 15 14  2  0  0  0  0
 15 25  1  0  0  0  0
 16  5  1  0  0  0  0
 17  6  1  0  0  0  0
 18  7  1  0  0  0  0
 21 11  1  0  0  0  0
 22 12  1  0  0  0  0
M  END
