6
 OpenBabel05122313113D

 35 35  0  0  0  0  0  0  0  0999 V2000
   -1.0347   -1.2478    0.0711 P   0  0  0  0  0  0  0  0  0  0  0  0
   -2.2093   -0.8388   -1.0637 O   0  0  0  0  0  0  0  0  0  0  0  0
   -1.8109    1.5624   -1.1129 C   0  0  0  0  0  0  0  0  0  0  0  0
   -2.1084   -1.4543    1.5837 C   0  0  0  0  0  0  0  0  0  0  0  0
   -0.6927   -3.0021   -0.5114 C   0  0  0  0  0  0  0  0  0  0  0  0
   -0.7603    1.6647   -0.1635 C   0  0  0  0  0  3  0  0  0  0  0  0
   -1.9327    0.2943   -1.9189 C   0  0  0  0  0  0  0  0  0  0  0  0
   -0.7610    2.8047    0.6768 C   0  0  0  0  0  0  0  0  0  0  0  0
   -1.2988   -2.1051    2.7114 C   0  0  0  0  0  0  0  0  0  0  0  0
   -2.7097   -0.1101    2.0053 C   0  0  0  0  0  0  0  0  0  0  0  0
   -2.7885    2.5691   -1.2261 C   0  0  0  0  0  0  0  0  0  0  0  0
   -1.7475    3.8019    0.5743 C   0  0  0  0  0  0  0  0  0  0  0  0
   -2.7597    3.6962   -0.3909 C   0  0  0  0  0  0  0  0  0  0  0  0
   -0.1526   -2.9367   -1.9469 C   0  0  0  0  0  0  0  0  0  0  0  0
   -1.9089   -3.9299   -0.4218 C   0  0  0  0  0  0  0  0  0  0  0  0
   -2.9329   -2.1313    1.2737 H   0  0  0  0  0  0  0  0  0  0  0  0
    0.1093   -3.3765    0.1642 H   0  0  0  0  0  0  0  0  0  0  0  0
   -2.7854    0.3418   -2.6251 H   0  0  0  0  0  0  0  0  0  0  0  0
   -1.0024    0.1003   -2.4993 H   0  0  0  0  0  0  0  0  0  0  0  0
    0.0196    2.9210    1.4464 H   0  0  0  0  0  0  0  0  0  0  0  0
   -0.8849   -3.0946    2.4292 H   0  0  0  0  0  0  0  0  0  0  0  0
   -1.9358   -2.2537    3.6078 H   0  0  0  0  0  0  0  0  0  0  0  0
   -0.4507   -1.4545    3.0109 H   0  0  0  0  0  0  0  0  0  0  0  0
   -3.2690    0.3631    1.1755 H   0  0  0  0  0  0  0  0  0  0  0  0
   -1.9213    0.6027    2.3203 H   0  0  0  0  0  0  0  0  0  0  0  0
   -3.4053   -0.2573    2.8575 H   0  0  0  0  0  0  0  0  0  0  0  0
   -3.5926    2.4586   -1.9730 H   0  0  0  0  0  0  0  0  0  0  0  0
   -1.7170    4.6710    1.2507 H   0  0  0  0  0  0  0  0  0  0  0  0
   -3.5271    4.4795   -0.4861 H   0  0  0  0  0  0  0  0  0  0  0  0
    0.6871   -2.2200   -2.0431 H   0  0  0  0  0  0  0  0  0  0  0  0
   -0.9543   -2.6106   -2.6394 H   0  0  0  0  0  0  0  0  0  0  0  0
    0.1989   -3.9357   -2.2775 H   0  0  0  0  0  0  0  0  0  0  0  0
   -2.2306   -4.1163    0.6214 H   0  0  0  0  0  0  0  0  0  0  0  0
   -1.6716   -4.9151   -0.8753 H   0  0  0  0  0  0  0  0  0  0  0  0
   -2.7660   -3.4998   -0.9788 H   0  0  0  0  0  0  0  0  0  0  0  0
  1  4  1  0  0  0  0
  2  1  1  0  0  0  0
  3  6  1  0  0  0  0
  4 10  1  0  0  0  0
  4  9  1  0  0  0  0
  5 15  1  0  0  0  0
  5  1  1  0  0  0  0
  5 17  1  0  0  0  0
  6  8  2  0  0  0  0
  7  3  1  0  0  0  0
  7  2  1  0  0  0  0
  8 20  1  0  0  0  0
  9 23  1  0  0  0  0
  9 22  1  0  0  0  0
 10 25  1  0  0  0  0
 10 26  1  0  0  0  0
 11  3  2  0  0  0  0
 11 13  1  0  0  0  0
 12  8  1  0  0  0  0
 12 28  1  0  0  0  0
 13 12  2  0  0  0  0
 14  5  1  0  0  0  0
 15 33  1  0  0  0  0
 16  4  1  0  0  0  0
 18  7  1  0  0  0  0
 19  7  1  0  0  0  0
 21  9  1  0  0  0  0
 24 10  1  0  0  0  0
 27 11  1  0  0  0  0
 29 13  1  0  0  0  0
 30 14  1  0  0  0  0
 31 14  1  0  0  0  0
 32 14  1  0  0  0  0
 34 15  1  0  0  0  0
 35 15  1  0  0  0  0
M  END
