1
 OpenBabel05122313113D

 47 49  0  0  0  0  0  0  0  0999 V2000
   -0.0015   -0.1824    0.0009 C   0  0  0  0  0  2  0  0  0  0  0  0
   -1.1268    0.5962    0.0230 N   0  0  0  0  0  0  0  0  0  0  0  0
   -2.0318    3.3296    0.0385 Br  0  0  0  0  0  0  0  0  0  0  0  0
   -0.7874    1.9522   -0.0245 C   0  0  0  0  0  0  0  0  0  0  0  0
    1.7105    3.4893   -0.1917 Br  0  0  0  0  0  0  0  0  0  0  0  0
    0.5870    2.0142   -0.0833 C   0  0  0  0  0  0  0  0  0  0  0  0
    1.0457    0.6961   -0.0605 N   0  0  0  0  0  0  0  0  0  0  0  0
   -2.4751    0.0961    0.1247 C   0  0  0  0  0  0  0  0  0  0  0  0
   -2.9586   -0.2730    1.3983 C   0  0  0  0  0  0  0  0  0  0  0  0
   -4.2738   -0.7633    1.4754 C   0  0  0  0  0  0  0  0  0  0  0  0
   -4.6696   -1.0599    2.4599 H   0  0  0  0  0  0  0  0  0  0  0  0
   -5.0935   -0.8769    0.3383 C   0  0  0  0  0  0  0  0  0  0  0  0
   -4.5769   -0.4607   -0.9030 C   0  0  0  0  0  0  0  0  0  0  0  0
   -5.2109   -0.5250   -1.8015 H   0  0  0  0  0  0  0  0  0  0  0  0
   -3.2702    0.0364   -1.0420 C   0  0  0  0  0  0  0  0  0  0  0  0
   -2.1058   -0.1491    2.6334 C   0  0  0  0  0  0  0  0  0  0  0  0
   -1.5355    0.8018    2.6502 H   0  0  0  0  0  0  0  0  0  0  0  0
   -1.3643   -0.9721    2.6912 H   0  0  0  0  0  0  0  0  0  0  0  0
   -2.7275   -0.1936    3.5473 H   0  0  0  0  0  0  0  0  0  0  0  0
   -6.4850   -1.4478    0.4397 C   0  0  0  0  0  0  0  0  0  0  0  0
   -6.8967   -1.3468    1.4628 H   0  0  0  0  0  0  0  0  0  0  0  0
   -6.4834   -2.5308    0.1906 H   0  0  0  0  0  0  0  0  0  0  0  0
   -7.1816   -0.9547   -0.2669 H   0  0  0  0  0  0  0  0  0  0  0  0
   -2.7384    0.4807   -2.3762 C   0  0  0  0  0  0  0  0  0  0  0  0
   -1.8394   -0.1145   -2.6435 H   0  0  0  0  0  0  0  0  0  0  0  0
   -2.4520    1.5530   -2.3655 H   0  0  0  0  0  0  0  0  0  0  0  0
   -3.4973    0.3394   -3.1682 H   0  0  0  0  0  0  0  0  0  0  0  0
    2.4300    0.2989   -0.0280 C   0  0  0  0  0  0  0  0  0  0  0  0
    3.0920    0.2902    1.2190 C   0  0  0  0  0  0  0  0  0  0  0  0
    4.4281   -0.1448    1.2383 C   0  0  0  0  0  0  0  0  0  0  0  0
    4.9612   -0.1718    2.2019 H   0  0  0  0  0  0  0  0  0  0  0  0
    5.0966   -0.5442    0.0660 C   0  0  0  0  0  0  0  0  0  0  0  0
    4.4042   -0.4773   -1.1577 C   0  0  0  0  0  0  0  0  0  0  0  0
    4.9209   -0.7632   -2.0876 H   0  0  0  0  0  0  0  0  0  0  0  0
    3.0661   -0.0540   -1.2382 C   0  0  0  0  0  0  0  0  0  0  0  0
    2.4081    0.7654    2.4745 C   0  0  0  0  0  0  0  0  0  0  0  0
    2.9451    0.4154    3.3756 H   0  0  0  0  0  0  0  0  0  0  0  0
    1.3620    0.4099    2.5430 H   0  0  0  0  0  0  0  0  0  0  0  0
    2.3762    1.8758    2.5071 H   0  0  0  0  0  0  0  0  0  0  0  0
    6.5148   -1.0528    0.1209 C   0  0  0  0  0  0  0  0  0  0  0  0
    7.0751   -0.8010   -0.8010 H   0  0  0  0  0  0  0  0  0  0  0  0
    6.5309   -2.1596    0.2191 H   0  0  0  0  0  0  0  0  0  0  0  0
    7.0659   -0.6394    0.9881 H   0  0  0  0  0  0  0  0  0  0  0  0
    2.3410    0.0268   -2.5523 C   0  0  0  0  0  0  0  0  0  0  0  0
    1.8780    1.0252   -2.6963 H   0  0  0  0  0  0  0  0  0  0  0  0
    1.5174   -0.7198   -2.6069 H   0  0  0  0  0  0  0  0  0  0  0  0
    3.0326   -0.1563   -3.3956 H   0  0  0  0  0  0  0  0  0  0  0  0
  1  2  1  0  0  0  0
  2  8  1  0  0  0  0
  4  2  1  0  0  0  0
  4  3  1  0  0  0  0
  5  6  1  0  0  0  0
  6  7  1  0  0  0  0
  6  4  2  0  0  0  0
  7 28  1  0  0  0  0
  7  1  1  0  0  0  0
  8  9  1  0  0  0  0
  9 10  2  0  0  0  0
  9 16  1  0  0  0  0
 10 11  1  0  0  0  0
 12 20  1  0  0  0  0
 12 10  1  0  0  0  0
 13 12  2  0  0  0  0
 14 13  1  0  0  0  0
 15 13  1  0  0  0  0
 15  8  2  0  0  0  0
 16 17  1  0  0  0  0
 16 18  1  0  0  0  0
 16 19  1  0  0  0  0
 20 21  1  0  0  0  0
 22 20  1  0  0  0  0
 23 20  1  0  0  0  0
 24 26  1  0  0  0  0
 24 15  1  0  0  0  0
 25 24  1  0  0  0  0
 27 24  1  0  0  0  0
 28 29  1  0  0  0  0
 29 30  2  0  0  0  0
 29 36  1  0  0  0  0
 30 31  1  0  0  0  0
 32 40  1  0  0  0  0
 32 30  1  0  0  0  0
 33 32  2  0  0  0  0
 34 33  1  0  0  0  0
 35 33  1  0  0  0  0
 35 28  2  0  0  0  0
 36 39  1  0  0  0  0
 36 38  1  0  0  0  0
 36 37  1  0  0  0  0
 40 42  1  0  0  0  0
 40 43  1  0  0  0  0
 41 40  1  0  0  0  0
 44 35  1  0  0  0  0
 45 44  1  0  0  0  0
 46 44  1  0  0  0  0
 47 44  1  0  0  0  0
M  END
