10
 OpenBabel05122313113D

 27 26  0  0  1  0  0  0  0  0999 V2000
   -3.7288    0.4986   -0.7773 O   0  0  0  0  0  0  0  0  0  0  0  0
    4.7939    0.0813   -0.0527 H   0  0  0  0  0  0  0  0  0  0  0  0
   -3.4788   -1.6707   -0.1429 O   0  0  0  0  0  0  0  0  0  0  0  0
    3.1941    0.8791   -1.1581 O   0  0  0  0  0  0  0  0  0  0  0  0
    3.3189    1.0623   -2.1051 H   0  0  0  0  0  0  0  0  0  0  0  0
    4.6643   -0.8348    0.2697 O   0  0  0  0  0  0  0  0  0  0  0  0
   -3.0245   -0.4894   -0.6372 C   0  0  0  0  0  0  0  0  0  0  0  0
   -1.5802   -0.5762   -0.9647 C   0  0  0  0  0  3  0  0  0  0  0  0
   -1.1834   -1.6011   -1.0160 H   0  0  0  0  0  0  0  0  0  0  0  0
   -0.9897    0.4845   -1.7344 C   0  0  0  0  0  3  0  0  0  0  0  0
   -1.6168    1.2925   -2.1408 H   0  0  0  0  0  0  0  0  0  0  0  0
    0.4300    0.5168   -1.8171 C   0  0  0  0  0  3  0  0  0  0  0  0
    0.9357    1.3817   -2.2727 H   0  0  0  0  0  0  0  0  0  0  0  0
    1.1628   -0.4979   -1.1181 C   0  0  0  0  0  3  0  0  0  0  0  0
    0.7688   -1.5271   -1.1478 H   0  0  0  0  0  0  0  0  0  0  0  0
    2.6718   -0.4482   -1.0218 C   0  0  2  0  0  0  0  0  0  0  0  0
    3.0912   -1.0998   -1.8285 H   0  0  0  0  0  0  0  0  0  0  0  0
    3.2600   -0.9938    0.2993 C   0  0  1  0  0  0  0  0  0  0  0  0
    2.8071   -0.3881    1.1255 H   0  0  0  0  0  0  0  0  0  0  0  0
    2.9493   -2.4639    0.5322 C   0  0  0  0  0  0  0  0  0  0  0  0
    3.3074   -3.0783   -0.3193 H   0  0  0  0  0  0  0  0  0  0  0  0
    3.4782   -2.8064    1.4424 H   0  0  0  0  0  0  0  0  0  0  0  0
    1.8673   -2.6398    0.6806 H   0  0  0  0  0  0  0  0  0  0  0  0
   -4.8592   -1.6792    0.2359 C   0  0  0  0  0  0  0  0  0  0  0  0
   -5.5111   -1.4779   -0.6383 H   0  0  0  0  0  0  0  0  0  0  0  0
   -5.0629   -0.9033    1.0016 H   0  0  0  0  0  0  0  0  0  0  0  0
   -5.0603   -2.6861    0.6426 H   0  0  0  0  0  0  0  0  0  0  0  0
  1  7  2  0  0  0  0
  2  6  1  0  0  0  0
  3 24  1  0  0  0  0
  4 16  1  0  0  0  0
  5  4  1  0  0  0  0
  6 18  1  0  0  0  0
  7  3  1  0  0  0  0
  8  7  1  0  0  0  0
  9  8  1  0  0  0  0
 10  8  1  0  0  0  0
 11 10  1  0  0  0  0
 12 10  1  0  0  0  0
 12 14  1  0  0  0  0
 13 12  1  0  0  0  0
 14 16  1  0  0  0  0
 15 14  1  0  0  0  0
 16 17  1  6  0  0  0
 16 18  1  0  0  0  0
 18 20  1  0  0  0  0
 18 19  1  1  0  0  0
 20 23  1  0  0  0  0
 20 22  1  0  0  0  0
 21 20  1  0  0  0  0
 24 27  1  0  0  0  0
 24 26  1  0  0  0  0
 25 24  1  0  0  0  0
M  END
