16
 OpenBabel05122313113D

 60 61  0  0  1  0  0  0  0  0999 V2000
   -0.2612   -0.9144    0.1229 N   0  0  0  0  0  0  0  0  0  0  0  0
   -1.3617   -0.1619    0.6866 C   0  0  0  0  0  0  0  0  0  0  0  0
    0.2280    1.0108    2.3576 C   0  0  0  0  0  0  0  0  0  0  0  0
    0.9719    0.3923    1.8183 H   0  0  0  0  0  0  0  0  0  0  0  0
    1.5215   -1.4739   -1.2469 C   0  0  2  0  0  0  0  0  0  0  0  0
   -1.1569    0.6489    1.8330 C   0  0  0  0  0  0  0  0  0  0  0  0
    3.1990   -0.5207    0.3985 N   0  0  0  0  0  0  0  0  0  0  0  0
   -2.6301   -0.2583    0.0533 C   0  0  0  0  0  0  0  0  0  0  0  0
   -3.7239    0.3725    0.6725 C   0  0  0  0  0  0  0  0  0  0  0  0
   -4.7167    0.3114    0.2028 H   0  0  0  0  0  0  0  0  0  0  0  0
   -3.5646    1.0948    1.8611 C   0  0  0  0  0  0  0  0  0  0  0  0
   -4.4349    1.5714    2.3372 H   0  0  0  0  0  0  0  0  0  0  0  0
    2.9549   -0.9372   -0.9835 C   0  0  0  0  0  0  0  0  0  0  0  0
    3.6757   -1.7278   -1.2942 H   0  0  0  0  0  0  0  0  0  0  0  0
    3.1206   -0.0809   -1.6739 H   0  0  0  0  0  0  0  0  0  0  0  0
    0.5247   -0.4180   -0.8158 C   0  0  0  0  0  2  0  0  0  0  0  0
   -4.0409   -1.7606   -1.4681 C   0  0  0  0  0  0  0  0  0  0  0  0
   -4.0618   -2.5610   -0.7013 H   0  0  0  0  0  0  0  0  0  0  0  0
   -4.0644   -2.2401   -2.4677 H   0  0  0  0  0  0  0  0  0  0  0  0
   -4.9775   -1.1748   -1.3692 H   0  0  0  0  0  0  0  0  0  0  0  0
    0.3940    0.7579    3.8641 C   0  0  0  0  0  0  0  0  0  0  0  0
   -0.2728    1.4113    4.4637 H   0  0  0  0  0  0  0  0  0  0  0  0
    1.4344    0.9810    4.1771 H   0  0  0  0  0  0  0  0  0  0  0  0
    0.1727   -0.2914    4.1415 H   0  0  0  0  0  0  0  0  0  0  0  0
   -2.2899    1.2529    2.4131 C   0  0  0  0  0  0  0  0  0  0  0  0
   -2.1597    1.8826    3.3061 H   0  0  0  0  0  0  0  0  0  0  0  0
   -2.7952   -0.8753   -1.3310 C   0  0  0  0  0  0  0  0  0  0  0  0
   -1.9101   -1.5102   -1.5294 H   0  0  0  0  0  0  0  0  0  0  0  0
    0.0494   -2.3290    0.5898 C   0  0  0  0  0  0  0  0  0  0  0  0
    1.1629   -2.7338   -0.4091 C   0  0  0  0  0  0  0  0  0  0  0  0
    0.8011   -3.5436   -1.0726 H   0  0  0  0  0  0  0  0  0  0  0  0
    2.0412   -3.1312    0.1328 H   0  0  0  0  0  0  0  0  0  0  0  0
    1.3638   -1.7166   -2.7600 C   0  0  0  0  0  0  0  0  0  0  0  0
    1.5262   -0.7784   -3.3278 H   0  0  0  0  0  0  0  0  0  0  0  0
    0.3469   -2.0854   -3.0019 H   0  0  0  0  0  0  0  0  0  0  0  0
    2.0973   -2.4733   -3.1083 H   0  0  0  0  0  0  0  0  0  0  0  0
   -2.7773    0.2512   -2.3831 C   0  0  0  0  0  0  0  0  0  0  0  0
   -3.6392    0.9360   -2.2461 H   0  0  0  0  0  0  0  0  0  0  0  0
   -2.8254   -0.1660   -3.4100 H   0  0  0  0  0  0  0  0  0  0  0  0
   -1.8503    0.8584   -2.2976 H   0  0  0  0  0  0  0  0  0  0  0  0
    0.5271    2.4857    2.0194 C   0  0  0  0  0  0  0  0  0  0  0  0
    0.4471    2.6905    0.9313 H   0  0  0  0  0  0  0  0  0  0  0  0
    1.5537    2.7554    2.3411 H   0  0  0  0  0  0  0  0  0  0  0  0
   -0.1785    3.1641    2.5422 H   0  0  0  0  0  0  0  0  0  0  0  0
    0.5568   -2.2954    2.0357 C   0  0  0  0  0  0  0  0  0  0  0  0
    1.4619   -1.6639    2.1114 H   0  0  0  0  0  0  0  0  0  0  0  0
    0.8119   -3.3254    2.3551 H   0  0  0  0  0  0  0  0  0  0  0  0
   -0.2195   -1.9091    2.7240 H   0  0  0  0  0  0  0  0  0  0  0  0
   -1.1886   -3.2279    0.4971 C   0  0  0  0  0  0  0  0  0  0  0  0
   -2.0185   -2.8400    1.1202 H   0  0  0  0  0  0  0  0  0  0  0  0
   -0.9284   -4.2390    0.8681 H   0  0  0  0  0  0  0  0  0  0  0  0
   -1.5488   -3.3317   -0.5439 H   0  0  0  0  0  0  0  0  0  0  0  0
    3.4560    0.9085    0.5292 C   0  0  0  0  0  0  0  0  0  0  0  0
    4.4407    1.2175    0.0899 H   0  0  0  0  0  0  0  0  0  0  0  0
    3.4572    1.1975    1.5999 H   0  0  0  0  0  0  0  0  0  0  0  0
    2.6604    1.4917    0.0201 H   0  0  0  0  0  0  0  0  0  0  0  0
    4.1990   -1.3149    1.0908 C   0  0  0  0  0  0  0  0  0  0  0  0
    3.9467   -2.3931    1.0434 H   0  0  0  0  0  0  0  0  0  0  0  0
    4.2316   -1.0296    2.1626 H   0  0  0  0  0  0  0  0  0  0  0  0
    5.2354   -1.1880    0.6774 H   0  0  0  0  0  0  0  0  0  0  0  0
  1 29  1  0  0  0  0
  1  2  1  0  0  0  0
  2  6  1  0  0  0  0
  3 21  1  0  0  0  0
  4  3  1  0  0  0  0
  5 33  1  6  0  0  0
  5 13  1  0  0  0  0
  5 16  1  0  0  0  0
  5 30  1  0  0  0  0
  6  3  1  0  0  0  0
  6 25  2  0  0  0  0
  7 53  1  0  0  0  0
  7 57  1  0  0  0  0
  8  9  1  0  0  0  0
  8  2  2  0  0  0  0
  9 11  2  0  0  0  0
 10  9  1  0  0  0  0
 11 12  1  0  0  0  0
 11 25  1  0  0  0  0
 13  7  1  0  0  0  0
 14 13  1  0  0  0  0
 15 13  1  0  0  0  0
 16  1  1  0  0  0  0
 17 20  1  0  0  0  0
 17 27  1  0  0  0  0
 17 18  1  0  0  0  0
 19 17  1  0  0  0  0
 21 24  1  0  0  0  0
 21 23  1  0  0  0  0
 21 22  1  0  0  0  0
 25 26  1  0  0  0  0
 27  8  1  0  0  0  0
 28 27  1  0  0  0  0
 29 45  1  0  0  0  0
 30 32  1  0  0  0  0
 30 29  1  0  0  0  0
 31 30  1  0  0  0  0
 34 33  1  0  0  0  0
 35 33  1  0  0  0  0
 36 33  1  0  0  0  0
 37 40  1  0  0  0  0
 37 38  1  0  0  0  0
 37 27  1  0  0  0  0
 39 37  1  0  0  0  0
 41 43  1  0  0  0  0
 41  3  1  0  0  0  0
 41 44  1  0  0  0  0
 42 41  1  0  0  0  0
 45 46  1  0  0  0  0
 45 47  1  0  0  0  0
 45 48  1  0  0  0  0
 49 29  1  0  0  0  0
 49 51  1  0  0  0  0
 49 50  1  0  0  0  0
 52 49  1  0  0  0  0
 53 55  1  0  0  0  0
 54 53  1  0  0  0  0
 56 53  1  0  0  0  0
 57 59  1  0  0  0  0
 58 57  1  0  0  0  0
 60 57  1  0  0  0  0
M  END
