8
 OpenBabel05122313113D

 61 62  0  0  1  0  0  0  0  0999 V2000
    1.7465   -2.2903    0.3481 Si  0  0  0  0  0  0  0  0  0  0  0  0
   -3.2507    2.4703   -0.8916 O   0  0  0  0  0  0  0  0  0  0  0  0
    1.0799   -0.9952   -0.5821 O   0  0  0  0  0  0  0  0  0  0  0  0
    3.3578    5.7731   -1.3058 N   0  0  0  0  0  0  0  0  0  0  0  0
   -2.1830    1.6535   -0.7286 C   0  0  0  0  0  0  0  0  0  0  0  0
   -1.0177    2.0044   -0.0059 C   0  0  0  0  0  0  0  0  0  0  0  0
   -0.9411    2.9748    0.4992 H   0  0  0  0  0  0  0  0  0  0  0  0
    0.0766    1.0862    0.1107 C   0  0  1  0  0  3  0  0  0  0  0  0
   -0.0009   -0.1816   -0.5432 C   0  0  0  0  0  0  0  0  0  0  0  0
   -1.2067   -0.5567   -1.2405 C   0  0  0  0  0  0  0  0  0  0  0  0
   -1.2638   -1.9081   -1.9227 C   0  0  0  0  0  0  0  0  0  0  0  0
   -1.3268   -2.6972   -1.1475 H   0  0  0  0  0  0  0  0  0  0  0  0
   -0.2925   -2.0711   -2.4341 H   0  0  0  0  0  0  0  0  0  0  0  0
   -2.4362   -2.0568   -2.8967 C   0  0  0  0  0  0  0  0  0  0  0  0
   -2.5432   -3.1230   -3.1816 H   0  0  0  0  0  0  0  0  0  0  0  0
   -2.2231   -1.4997   -3.8359 H   0  0  0  0  0  0  0  0  0  0  0  0
   -3.7253   -1.5164   -2.2757 C   0  0  0  0  0  0  0  0  0  0  0  0
   -3.9220   -2.0365   -1.3128 H   0  0  0  0  0  0  0  0  0  0  0  0
   -4.5969   -1.7124   -2.9321 H   0  0  0  0  0  0  0  0  0  0  0  0
   -3.5933   -0.0143   -2.0269 C   0  0  0  0  0  0  0  0  0  0  0  0
   -4.4482    0.3814   -1.4443 H   0  0  0  0  0  0  0  0  0  0  0  0
   -3.6151    0.5330   -2.9970 H   0  0  0  0  0  0  0  0  0  0  0  0
   -2.3103    0.3466   -1.3150 C   0  0  2  0  0  3  0  0  0  0  0  0
   -3.3396    3.6350   -0.0814 C   0  0  0  0  0  0  0  0  0  0  0  0
   -4.3267    4.0841   -0.2931 H   0  0  0  0  0  0  0  0  0  0  0  0
   -3.2778    3.3725    0.9967 H   0  0  0  0  0  0  0  0  0  0  0  0
   -2.5457    4.3720   -0.3314 H   0  0  0  0  0  0  0  0  0  0  0  0
    1.3368    1.5354    0.8037 C   0  0  0  0  0  0  0  0  0  0  0  0
    1.8762    0.6577    1.2045 H   0  0  0  0  0  0  0  0  0  0  0  0
    1.0684    2.1653    1.6770 H   0  0  0  0  0  0  0  0  0  0  0  0
    2.2561    2.3190   -0.1454 C   0  0  0  0  0  0  0  0  0  0  0  0
    1.7114    3.2014   -0.5460 H   0  0  0  0  0  0  0  0  0  0  0  0
    2.4955    1.6835   -1.0259 H   0  0  0  0  0  0  0  0  0  0  0  0
    3.5498    2.7767    0.5288 C   0  0  0  0  0  0  0  0  0  0  0  0
    4.1113    1.8960    0.9052 H   0  0  0  0  0  0  0  0  0  0  0  0
    3.3122    3.4007    1.4166 H   0  0  0  0  0  0  0  0  0  0  0  0
    4.4838    3.5654   -0.4104 C   0  0  0  0  0  0  0  0  0  0  0  0
    4.7713    2.9374   -1.2816 H   0  0  0  0  0  0  0  0  0  0  0  0
    5.4279    3.8304    0.1107 H   0  0  0  0  0  0  0  0  0  0  0  0
    3.8777    4.7980   -0.9172 C   0  0  0  0  0  0  0  0  0  0  0  0
    0.8336   -3.9046    0.0289 C   0  0  0  0  0  0  0  0  0  0  0  0
   -0.1755   -3.8877    0.4857 H   0  0  0  0  0  0  0  0  0  0  0  0
    0.7372   -4.1326   -1.0502 H   0  0  0  0  0  0  0  0  0  0  0  0
    1.3994   -4.7335    0.5031 H   0  0  0  0  0  0  0  0  0  0  0  0
    1.6818   -1.9023    2.1866 C   0  0  0  0  0  0  0  0  0  0  0  0
    0.6465   -1.6624    2.4979 H   0  0  0  0  0  0  0  0  0  0  0  0
    2.0036   -2.7989    2.7555 H   0  0  0  0  0  0  0  0  0  0  0  0
    2.3332   -1.0578    2.4849 H   0  0  0  0  0  0  0  0  0  0  0  0
    3.5355   -2.3662   -0.3339 C   0  0  0  0  0  0  0  0  0  0  0  0
    4.2407   -1.0164   -0.1089 C   0  0  0  0  0  0  0  0  0  0  0  0
    5.2841   -1.0547   -0.4935 H   0  0  0  0  0  0  0  0  0  0  0  0
    3.7165   -0.1956   -0.6377 H   0  0  0  0  0  0  0  0  0  0  0  0
    4.2972   -0.7510    0.9676 H   0  0  0  0  0  0  0  0  0  0  0  0
    3.4918   -2.6760   -1.8423 C   0  0  0  0  0  0  0  0  0  0  0  0
    4.5215   -2.7113   -2.2625 H   0  0  0  0  0  0  0  0  0  0  0  0
    3.0183   -3.6575   -2.0503 H   0  0  0  0  0  0  0  0  0  0  0  0
    2.9261   -1.9012   -2.3989 H   0  0  0  0  0  0  0  0  0  0  0  0
    4.3004   -3.4781    0.4105 C   0  0  0  0  0  0  0  0  0  0  0  0
    5.3461   -3.5442    0.0364 H   0  0  0  0  0  0  0  0  0  0  0  0
    4.3544   -3.2880    1.5027 H   0  0  0  0  0  0  0  0  0  0  0  0
    3.8378   -4.4757    0.2630 H   0  0  0  0  0  0  0  0  0  0  0  0
  1 45  1  0  0  0  0
  2  5  1  0  0  0  0
  2 24  1  0  0  0  0
  3  9  1  0  0  0  0
  3  1  1  0  0  0  0
  4 40  3  0  0  0  0
  5  6  2  0  0  0  0
  6  8  1  0  0  0  0
  6  7  1  0  0  0  0
  8 28  1  6  0  0  0
  9  8  1  0  0  0  0
 10  9  2  0  0  0  0
 11 10  1  0  0  0  0
 11 12  1  0  0  0  0
 13 11  1  0  0  0  0
 14 17  1  0  0  0  0
 14 11  1  0  0  0  0
 15 14  1  0  0  0  0
 16 14  1  0  0  0  0
 17 20  1  0  0  0  0
 17 18  1  0  0  0  0
 19 17  1  0  0  0  0
 20 21  1  0  0  0  0
 20 23  1  0  0  0  0
 22 20  1  0  0  0  0
 23 10  1  6  0  0  0
 23  5  1  0  0  0  0
 24 26  1  0  0  0  0
 25 24  1  0  0  0  0
 27 24  1  0  0  0  0
 28 29  1  0  0  0  0
 28 30  1  0  0  0  0
 31 34  1  0  0  0  0
 31 28  1  0  0  0  0
 32 31  1  0  0  0  0
 33 31  1  0  0  0  0
 34 35  1  0  0  0  0
 34 36  1  0  0  0  0
 37 39  1  0  0  0  0
 37 34  1  0  0  0  0
 38 37  1  0  0  0  0
 40 37  1  0  0  0  0
 41  1  1  0  0  0  0
 41 42  1  0  0  0  0
 41 44  1  0  0  0  0
 43 41  1  0  0  0  0
 45 48  1  0  0  0  0
 45 46  1  0  0  0  0
 45 47  1  0  0  0  0
 49 50  1  0  0  0  0
 49  1  1  0  0  0  0
 49 58  1  0  0  0  0
 50 53  1  0  0  0  0
 51 50  1  0  0  0  0
 52 50  1  0  0  0  0
 54 49  1  0  0  0  0
 55 54  1  0  0  0  0
 56 54  1  0  0  0  0
 57 54  1  0  0  0  0
 58 60  1  0  0  0  0
 59 58  1  0  0  0  0
 61 58  1  0  0  0  0
M  END
