3
 OpenBabel05122313113D

 17 16  0  0  1  0  0  0  0  0999 V2000
    4.9622   -1.1910    0.0449 O   0  0  0  0  0  0  0  0  0  0  0  0
    4.2407    0.9525    0.0244 N   0  0  0  0  0  0  0  0  0  0  0  0
    1.4255   -1.2340    0.1271 C   0  0  0  0  0  3  0  0  0  0  0  0
    2.6063   -0.8110    0.1261 C   0  0  0  0  0  0  0  0  0  0  0  0
    3.9189   -0.3552    0.0669 C   0  0  1  0  0  3  0  0  0  0  0  0
    3.2046    1.9769    0.0269 C   0  0  0  0  0  0  0  0  0  0  0  0
    2.2482    1.5461    0.3701 H   0  0  0  0  0  0  0  0  0  0  0  0
    3.0575    2.3918   -0.9929 H   0  0  0  0  0  0  0  0  0  0  0  0
    3.5046    2.7977    0.7076 H   0  0  0  0  0  0  0  0  0  0  0  0
    5.6181    1.4154   -0.0992 C   0  0  0  0  0  0  0  0  0  0  0  0
    6.3092    0.5588   -0.1428 H   0  0  0  0  0  0  0  0  0  0  0  0
    5.8795    2.0540    0.7700 H   0  0  0  0  0  0  0  0  0  0  0  0
    5.7263    2.0224   -1.0221 H   0  0  0  0  0  0  0  0  0  0  0  0
    4.7063   -2.6042    0.0860 C   0  0  0  0  0  0  0  0  0  0  0  0
    5.6997   -3.0843    0.0594 H   0  0  0  0  0  0  0  0  0  0  0  0
    4.1030   -2.9155   -0.7898 H   0  0  0  0  0  0  0  0  0  0  0  0
    4.1709   -2.8756    1.0174 H   0  0  0  0  0  0  0  0  0  0  0  0
  1  5  1  0  0  0  0
  1 14  1  0  0  0  0
  2  6  1  0  0  0  0
  2  5  1  0  0  0  0
  4  3  3  0  0  0  0
  5  4  1  6  0  0  0
  6  7  1  0  0  0  0
  6  9  1  0  0  0  0
  8  6  1  0  0  0  0
 10  2  1  0  0  0  0
 10 12  1  0  0  0  0
 11 10  1  0  0  0  0
 13 10  1  0  0  0  0
 14 17  1  0  0  0  0
 15 14  1  0  0  0  0
 16 14  1  0  0  0  0
M  END
