2
 OpenBabel05122313113D

 10  9  0  0  0  0  0  0  0  0999 V2000
   -1.9389    1.8414   -0.0902 O   0  0  0  0  0  0  0  0  0  0  0  0
   -1.4097    0.6341   -0.0771 C   0  0  0  0  0  2  0  0  0  0  0  0
   -2.6358   -0.3171   -0.0227 C   0  0  0  0  0  0  0  0  0  0  0  0
   -1.1205    3.0177   -0.0784 C   0  0  0  0  0  0  0  0  0  0  0  0
   -1.8175    3.8695    0.0095 H   0  0  0  0  0  0  0  0  0  0  0  0
   -0.4225    2.9926    0.7797 H   0  0  0  0  0  0  0  0  0  0  0  0
   -0.5479    3.0856   -1.0228 H   0  0  0  0  0  0  0  0  0  0  0  0
   -2.3597   -1.5371   -0.5243 F   0  0  0  0  0  0  0  0  0  0  0  0
   -3.7009    0.1628   -0.6913 F   0  0  0  0  0  0  0  0  0  0  0  0
   -2.9884   -0.4761    1.2772 F   0  0  0  0  0  0  0  0  0  0  0  0
  1  4  1  0  0  0  0
  1  2  1  0  0  0  0
  2  3  1  0  0  0  0
  3 10  1  0  0  0  0
  4  5  1  0  0  0  0
  4  6  1  0  0  0  0
  7  4  1  0  0  0  0
  8  3  1  0  0  0  0
  9  3  1  0  0  0  0
M  END
