9
 OpenBabel05122313113D

 55 59  0  0  0  0  0  0  0  0999 V2000
    1.1574   -1.0607    0.1008 N   0  0  0  0  0  0  0  0  0  0  0  0
    1.0042    1.0892   -0.1657 N   0  0  0  0  0  0  0  0  0  0  0  0
    2.4731   -0.5658    0.1433 C   0  0  0  0  0  0  0  0  0  0  0  0
    0.4125    2.3908   -0.3278 C   0  0  0  0  0  0  0  0  0  0  0  0
    0.7621   -2.4411    0.1956 C   0  0  0  0  0  0  0  0  0  0  0  0
   -0.7315    3.9713   -1.7616 C   0  0  0  0  0  0  0  0  0  0  0  0
   -1.1852    4.2253   -2.7309 H   0  0  0  0  0  0  0  0  0  0  0  0
    0.3972    3.2877    0.7636 C   0  0  0  0  0  0  0  0  0  0  0  0
    0.2654   -0.0508   -0.0887 C   0  0  0  0  0  2  0  0  0  0  0  0
   -0.1567    2.7080   -1.5709 C   0  0  0  0  0  0  0  0  0  0  0  0
   -0.1709    1.9414   -2.3603 H   0  0  0  0  0  0  0  0  0  0  0  0
    2.3748    0.8087   -0.0230 C   0  0  0  0  0  0  0  0  0  0  0  0
    3.4257    1.8368   -0.0148 C   0  0  0  0  0  0  0  0  0  0  0  0
   -0.7290    4.8986   -0.7081 C   0  0  0  0  0  0  0  0  0  0  0  0
   -1.1750    5.8950   -0.8485 H   0  0  0  0  0  0  0  0  0  0  0  0
    3.7071   -2.4723    1.2273 C   0  0  0  0  0  0  0  0  0  0  0  0
    2.8400   -2.6642    1.8739 H   0  0  0  0  0  0  0  0  0  0  0  0
    0.9155    2.8856    2.1164 C   0  0  0  0  0  0  0  0  0  0  0  0
    0.7150    3.6756    2.8642 H   0  0  0  0  0  0  0  0  0  0  0  0
    2.0092    2.6988    2.1022 H   0  0  0  0  0  0  0  0  0  0  0  0
    0.4130    1.9523    2.4488 H   0  0  0  0  0  0  0  0  0  0  0  0
    3.6641   -1.4152    0.2898 C   0  0  0  0  0  0  0  0  0  0  0  0
    1.0400   -3.3184   -0.8762 C   0  0  0  0  0  0  0  0  0  0  0  0
    4.8534   -3.2707    1.3424 C   0  0  0  0  0  0  0  0  0  0  0  0
    4.8710   -4.0897    2.0772 H   0  0  0  0  0  0  0  0  0  0  0  0
    4.7965   -1.1807   -0.5259 C   0  0  0  0  0  0  0  0  0  0  0  0
    4.7654   -0.3698   -1.2682 H   0  0  0  0  0  0  0  0  0  0  0  0
   -0.1778    4.5536    0.5344 C   0  0  0  0  0  0  0  0  0  0  0  0
   -0.2061    5.2757    1.3651 H   0  0  0  0  0  0  0  0  0  0  0  0
    5.9735   -3.0265    0.5328 C   0  0  0  0  0  0  0  0  0  0  0  0
    6.8715   -3.6558    0.6263 H   0  0  0  0  0  0  0  0  0  0  0  0
    3.4297    2.8976   -0.9490 C   0  0  0  0  0  0  0  0  0  0  0  0
    2.6395    2.9581   -1.7097 H   0  0  0  0  0  0  0  0  0  0  0  0
    4.4587    1.7741    0.9504 C   0  0  0  0  0  0  0  0  0  0  0  0
    4.4541    0.9607    1.6905 H   0  0  0  0  0  0  0  0  0  0  0  0
    0.0837   -2.8565    1.3519 C   0  0  0  0  0  0  0  0  0  0  0  0
   -0.1604   -2.1097    2.1225 H   0  0  0  0  0  0  0  0  0  0  0  0
    0.6466   -4.6616   -0.7129 C   0  0  0  0  0  0  0  0  0  0  0  0
    0.8487   -5.3711   -1.5304 H   0  0  0  0  0  0  0  0  0  0  0  0
    4.4417    3.8670   -0.9154 C   0  0  0  0  0  0  0  0  0  0  0  0
    4.4306    4.6864   -1.6498 H   0  0  0  0  0  0  0  0  0  0  0  0
    1.6708   -2.8261   -2.1490 C   0  0  0  0  0  0  0  0  0  0  0  0
    1.0803   -1.9784   -2.5575 H   0  0  0  0  0  0  0  0  0  0  0  0
    1.7007   -3.6295   -2.9088 H   0  0  0  0  0  0  0  0  0  0  0  0
    2.7096   -2.4719   -1.9859 H   0  0  0  0  0  0  0  0  0  0  0  0
    5.9413   -1.9763   -0.3998 C   0  0  0  0  0  0  0  0  0  0  0  0
    6.8126   -1.7814   -1.0432 H   0  0  0  0  0  0  0  0  0  0  0  0
    5.4711    2.7406    0.9729 C   0  0  0  0  0  0  0  0  0  0  0  0
    6.2661    2.6779    1.7312 H   0  0  0  0  0  0  0  0  0  0  0  0
    5.4652    3.7927    0.0419 C   0  0  0  0  0  0  0  0  0  0  0  0
    6.2578    4.5558    0.0647 H   0  0  0  0  0  0  0  0  0  0  0  0
   -0.0095   -5.1017    0.4457 C   0  0  0  0  0  0  0  0  0  0  0  0
   -0.3068   -6.1576    0.5359 H   0  0  0  0  0  0  0  0  0  0  0  0
   -0.3047   -4.1967    1.4771 C   0  0  0  0  0  0  0  0  0  0  0  0
   -0.8419   -4.5287    2.3776 H   0  0  0  0  0  0  0  0  0  0  0  0
  1  3  1  0  0  0  0
  1  5  1  0  0  0  0
  2  9  1  0  0  0  0
  2 12  1  0  0  0  0
  3 22  1  0  0  0  0
  4  2  1  0  0  0  0
  4  8  1  0  0  0  0
  5 36  1  0  0  0  0
  6 10  1  0  0  0  0
  6 14  2  0  0  0  0
  7  6  1  0  0  0  0
  8 18  1  0  0  0  0
  9  1  1  0  0  0  0
 10  4  2  0  0  0  0
 11 10  1  0  0  0  0
 12 13  1  0  0  0  0
 12  3  2  0  0  0  0
 13 34  1  0  0  0  0
 14 28  1  0  0  0  0
 15 14  1  0  0  0  0
 16 24  1  0  0  0  0
 16 17  1  0  0  0  0
 18 21  1  0  0  0  0
 18 19  1  0  0  0  0
 20 18  1  0  0  0  0
 22 16  2  0  0  0  0
 23 38  1  0  0  0  0
 23  5  2  0  0  0  0
 24 25  1  0  0  0  0
 26 46  2  0  0  0  0
 26 22  1  0  0  0  0
 27 26  1  0  0  0  0
 28  8  2  0  0  0  0
 28 29  1  0  0  0  0
 30 31  1  0  0  0  0
 30 24  2  0  0  0  0
 32 40  1  0  0  0  0
 32 13  2  0  0  0  0
 33 32  1  0  0  0  0
 34 48  2  0  0  0  0
 34 35  1  0  0  0  0
 36 54  2  0  0  0  0
 36 37  1  0  0  0  0
 38 52  2  0  0  0  0
 39 38  1  0  0  0  0
 40 50  2  0  0  0  0
 41 40  1  0  0  0  0
 42 45  1  0  0  0  0
 42 23  1  0  0  0  0
 43 42  1  0  0  0  0
 44 42  1  0  0  0  0
 46 30  1  0  0  0  0
 47 46  1  0  0  0  0
 48 49  1  0  0  0  0
 50 51  1  0  0  0  0
 50 48  1  0  0  0  0
 52 53  1  0  0  0  0
 52 54  1  0  0  0  0
 54 55  1  0  0  0  0
M  END
