1
 OpenBabel05122313113D

 14 14  0  0  0  0  0  0  0  0999 V2000
   -3.0468    0.8815    0.5015 C   0  0  0  0  0  3  0  0  0  0  0  0
   -2.7324    1.9027    0.7797 H   0  0  0  0  0  0  0  0  0  0  0  0
   -3.1360    0.5554   -0.8458 C   0  0  0  0  0  3  0  0  0  0  0  0
   -2.8959    1.3297   -1.5952 H   0  0  0  0  0  0  0  0  0  0  0  0
   -3.8257   -0.6980   -1.3223 C   0  0  0  0  0  0  0  0  0  0  0  0
   -3.2705   -1.1490   -2.1731 H   0  0  0  0  0  0  0  0  0  0  0  0
   -4.8048   -0.3959   -1.7686 H   0  0  0  0  0  0  0  0  0  0  0  0
   -4.0470   -1.7002   -0.2193 C   0  0  0  0  0  0  0  0  0  0  0  0
   -4.3165   -2.7255   -0.5181 H   0  0  0  0  0  0  0  0  0  0  0  0
   -3.9598   -1.3850    1.0885 C   0  0  0  0  0  0  0  0  0  0  0  0
   -4.1602   -2.1541    1.8511 H   0  0  0  0  0  0  0  0  0  0  0  0
   -3.6316    0.0020    1.5779 C   0  0  0  0  0  0  0  0  0  0  0  0
   -2.9581   -0.0293    2.4618 H   0  0  0  0  0  0  0  0  0  0  0  0
   -4.5547    0.5038    1.9591 H   0  0  0  0  0  0  0  0  0  0  0  0
  1  2  1  0  0  0  0
  1 12  1  0  0  0  0
  3  1  1  0  0  0  0
  4  3  1  0  0  0  0
  5  3  1  0  0  0  0
  5  8  1  0  0  0  0
  6  5  1  0  0  0  0
  7  5  1  0  0  0  0
  8 10  2  0  0  0  0
  9  8  1  0  0  0  0
 10 12  1  0  0  0  0
 10 11  1  0  0  0  0
 12 14  1  0  0  0  0
 12 13  1  0  0  0  0
M  END
