7
 OpenBabel05122313113D

 42 44  0  0  0  0  0  0  0  0999 V2000
    2.4095   -0.2346   -1.1015 N   0  0  0  0  0  0  0  0  0  0  0  0
    0.9726   -0.8152   -2.8582 N   0  0  0  0  0  0  0  0  0  0  0  0
   -0.7138   -2.1637   -3.0002 N   0  0  0  0  0  0  0  0  0  0  0  0
    3.3186    0.5281   -0.5134 N   0  0  0  0  0  0  0  0  0  0  0  0
    4.7949    2.3510   -0.5127 N   0  0  0  0  0  0  0  0  0  0  0  0
    5.3054    3.4317   -1.1810 N   0  0  0  0  0  0  0  0  0  0  0  0
    0.0372   -1.4761   -2.0949 C   0  0  0  0  0  2  0  0  0  0  0  0
    0.8011   -1.0857   -4.2138 C   0  0  0  0  0  0  0  0  0  0  0  0
    1.4591   -0.6912   -4.9924 H   0  0  0  0  0  0  0  0  0  0  0  0
   -0.2631   -1.9403   -4.2981 C   0  0  0  0  0  0  0  0  0  0  0  0
   -0.7122   -2.4015   -5.1792 H   0  0  0  0  0  0  0  0  0  0  0  0
   -1.9042   -3.0148   -2.6297 C   0  0  0  0  0  0  0  0  0  0  0  0
   -2.4873   -3.6531   -3.8968 C   0  0  0  0  0  0  0  0  0  0  0  0
   -2.8591   -2.8945   -4.6136 H   0  0  0  0  0  0  0  0  0  0  0  0
   -3.3513   -4.2798   -3.6063 H   0  0  0  0  0  0  0  0  0  0  0  0
   -1.7582   -4.3126   -4.4081 H   0  0  0  0  0  0  0  0  0  0  0  0
   -2.9547   -2.1085   -1.9695 C   0  0  0  0  0  0  0  0  0  0  0  0
   -2.5700   -1.6366   -1.0445 H   0  0  0  0  0  0  0  0  0  0  0  0
   -3.8476   -2.7079   -1.7046 H   0  0  0  0  0  0  0  0  0  0  0  0
   -3.2712   -1.3067   -2.6654 H   0  0  0  0  0  0  0  0  0  0  0  0
   -1.4350   -4.1190   -1.6694 C   0  0  0  0  0  0  0  0  0  0  0  0
   -0.6464   -4.7438   -2.1338 H   0  0  0  0  0  0  0  0  0  0  0  0
   -2.2904   -4.7713   -1.4075 H   0  0  0  0  0  0  0  0  0  0  0  0
   -1.0342   -3.6854   -0.7307 H   0  0  0  0  0  0  0  0  0  0  0  0
    1.9715    0.0520   -2.3301 C   0  0  0  0  0  0  0  0  0  0  0  0
    2.4489    1.1542   -3.0735 C   0  0  0  0  0  0  0  0  0  0  0  0
    2.0557    1.3923   -4.0720 H   0  0  0  0  0  0  0  0  0  0  0  0
    3.4160    1.9460   -2.4792 C   0  0  0  0  0  0  0  0  0  0  0  0
    3.8584    2.8297   -2.9558 H   0  0  0  0  0  0  0  0  0  0  0  0
    3.8279    1.5868   -1.1682 C   0  0  0  0  0  0  0  0  0  0  0  0
    5.3574    2.1974    0.7587 C   0  0  0  0  0  0  0  0  0  0  0  0
    6.2605    3.2405    0.8747 C   0  0  0  0  0  0  0  0  0  0  0  0
    6.8967    3.4455    1.7426 H   0  0  0  0  0  0  0  0  0  0  0  0
    6.1924    3.9773   -0.3524 C   0  0  0  0  0  0  0  0  0  0  0  0
    5.0257    1.1240    1.7398 C   0  0  0  0  0  0  0  0  0  0  0  0
    5.6377    1.2714    2.6495 H   0  0  0  0  0  0  0  0  0  0  0  0
    5.2244    0.1146    1.3301 H   0  0  0  0  0  0  0  0  0  0  0  0
    3.9537    1.1361    2.0172 H   0  0  0  0  0  0  0  0  0  0  0  0
    6.9651    5.1946   -0.7427 C   0  0  0  0  0  0  0  0  0  0  0  0
    8.0561    4.9946   -0.7320 H   0  0  0  0  0  0  0  0  0  0  0  0
    6.7808    6.0284   -0.0347 H   0  0  0  0  0  0  0  0  0  0  0  0
    6.6759    5.5220   -1.7581 H   0  0  0  0  0  0  0  0  0  0  0  0
  1  4  1  0  0  0  0
  2 25  1  0  0  0  0
  2  7  1  0  0  0  0
  3 12  1  0  0  0  0
  3  7  1  0  0  0  0
  5 31  1  0  0  0  0
  6  5  1  0  0  0  0
  6 34  2  0  0  0  0
  8  2  1  0  0  0  0
  9  8  1  0  0  0  0
 10  8  2  0  0  0  0
 10  3  1  0  0  0  0
 11 10  1  0  0  0  0
 12 17  1  0  0  0  0
 12 21  1  0  0  0  0
 13 15  1  0  0  0  0
 13 12  1  0  0  0  0
 14 13  1  0  0  0  0
 16 13  1  0  0  0  0
 17 19  1  0  0  0  0
 17 18  1  0  0  0  0
 20 17  1  0  0  0  0
 21 23  1  0  0  0  0
 21 24  1  0  0  0  0
 22 21  1  0  0  0  0
 25  1  2  0  0  0  0
 26 28  2  0  0  0  0
 26 25  1  0  0  0  0
 27 26  1  0  0  0  0
 28 30  1  0  0  0  0
 29 28  1  0  0  0  0
 30  4  2  0  0  0  0
 30  5  1  0  0  0  0
 31 32  2  0  0  0  0
 31 35  1  0  0  0  0
 32 33  1  0  0  0  0
 34 32  1  0  0  0  0
 35 38  1  0  0  0  0
 35 36  1  0  0  0  0
 37 35  1  0  0  0  0
 39 40  1  0  0  0  0
 39 34  1  0  0  0  0
 39 41  1  0  0  0  0
 42 39  1  0  0  0  0
M  END
