4
 OpenBabel05122313113D

 22 23  0  0  0  0  0  0  0  0999 V2000
   -0.1166   -1.3275   -0.2683 C   0  0  0  0  0  0  0  0  0  0  0  0
   -0.9502   -1.9514    0.7359 C   0  0  0  0  0  0  0  0  0  0  0  0
   -0.6516   -2.1441    1.7718 H   0  0  0  0  0  0  0  0  0  0  0  0
   -2.1855   -2.3251    0.1066 C   0  0  0  0  0  3  0  0  0  0  0  0
   -3.0199   -2.8384    0.5998 H   0  0  0  0  0  0  0  0  0  0  0  0
   -2.1380   -1.9401   -1.2724 C   0  0  0  0  0  0  0  0  0  0  0  0
   -2.9097   -2.1298   -2.0267 H   0  0  0  0  0  0  0  0  0  0  0  0
   -0.8694   -1.2901   -1.4989 C   0  0  0  0  0  0  0  0  0  0  0  0
   -0.4862   -0.9201   -2.4568 H   0  0  0  0  0  0  0  0  0  0  0  0
    1.6249    0.2192   -0.3513 C   0  0  0  0  0  0  0  0  0  0  0  0
    0.9238    1.0487   -0.6064 H   0  0  0  0  0  0  0  0  0  0  0  0
    3.0177    0.5970   -0.2913 C   0  0  0  0  0  0  0  0  0  0  0  0
    3.6270    1.8384   -0.4733 C   0  0  0  0  0  0  0  0  0  0  0  0
    3.1102    2.7768   -0.7040 H   0  0  0  0  0  0  0  0  0  0  0  0
    5.0213    1.6376   -0.2917 C   0  0  0  0  0  0  0  0  0  0  0  0
    5.8412    2.3592   -0.3477 H   0  0  0  0  0  0  0  0  0  0  0  0
    5.1504    0.2887   -0.0139 C   0  0  0  0  0  0  0  0  0  0  0  0
    6.3347   -0.4963    0.2604 N   0  0  0  0  0  0  0  0  0  0  0  0
    1.2115   -0.9756   -0.1061 N   0  0  0  0  0  0  0  0  0  0  0  0
    7.3976    0.1309    0.2431 O   0  0  0  0  0  0  0  0  0  0  0  0
    6.1854   -1.6949    0.4820 O   0  0  0  0  0  0  0  0  0  0  0  0
    3.9635   -0.3499   -0.0104 O   0  0  0  0  0  0  0  0  0  0  0  0
  1 19  1  0  0  0  0
  1  2  2  0  0  0  0
  2  3  1  0  0  0  0
  4  5  1  0  0  0  0
  4  2  1  0  0  0  0
  6  4  1  0  0  0  0
  7  6  1  0  0  0  0
  8  6  2  0  0  0  0
  8  1  1  0  0  0  0
  9  8  1  0  0  0  0
 10 12  1  0  0  0  0
 10 19  2  0  0  0  0
 11 10  1  0  0  0  0
 12 22  1  0  0  0  0
 13 15  1  0  0  0  0
 13 12  2  0  0  0  0
 14 13  1  0  0  0  0
 15 17  2  0  0  0  0
 16 15  1  0  0  0  0
 17 22  1  0  0  0  0
 17 18  1  0  0  0  0
 18 21  2  0  0  0  0
 20 18  2  0  0  0  0
M  END
