2
 OpenBabel05122313113D

 21 21  0  0  0  0  0  0  0  0999 V2000
   -0.1711    2.7668    0.1294 N   0  0  0  0  0  0  0  0  0  0  0  0
   -0.4269    1.4866   -0.2979 C   0  0  0  0  0  2  0  0  0  0  0  0
   -3.4004    0.1347    1.2078 O   0  0  0  0  0  0  0  0  0  0  0  0
   -1.7668    1.5109   -0.6180 N   0  0  0  0  0  0  0  0  0  0  0  0
   -4.2422   -1.1312   -0.4779 O   0  0  0  0  0  0  0  0  0  0  0  0
   -1.3144    3.5544    0.0841 C   0  0  0  0  0  0  0  0  0  0  0  0
   -1.3049    4.6074    0.3786 H   0  0  0  0  0  0  0  0  0  0  0  0
   -2.3220    2.7614   -0.3839 C   0  0  0  0  0  0  0  0  0  0  0  0
   -3.3770    2.9738   -0.5767 H   0  0  0  0  0  0  0  0  0  0  0  0
    1.1022    3.2708    0.6222 C   0  0  0  0  0  0  0  0  0  0  0  0
    1.1504    3.1921    1.7271 H   0  0  0  0  0  0  0  0  0  0  0  0
    1.2011    4.3341    0.3340 H   0  0  0  0  0  0  0  0  0  0  0  0
    1.9162    2.6898    0.1458 H   0  0  0  0  0  0  0  0  0  0  0  0
   -2.5618    0.3909   -1.0697 C   0  0  0  0  0  0  0  0  0  0  0  0
   -1.8662   -0.3885   -1.4744 H   0  0  0  0  0  0  0  0  0  0  0  0
   -3.1954    0.6918   -1.9280 H   0  0  0  0  0  0  0  0  0  0  0  0
   -3.4297   -0.1797    0.0303 C   0  0  0  0  0  0  0  0  0  0  0  0
   -5.0817   -1.8054    0.4689 C   0  0  0  0  0  0  0  0  0  0  0  0
   -4.4727   -2.4275    1.1562 H   0  0  0  0  0  0  0  0  0  0  0  0
   -5.7571   -2.4471   -0.1238 H   0  0  0  0  0  0  0  0  0  0  0  0
   -5.6604   -1.0789    1.0730 H   0  0  0  0  0  0  0  0  0  0  0  0
  1 10  1  0  0  0  0
  2  1  1  0  0  0  0
  4  8  1  0  0  0  0
  4  2  1  0  0  0  0
  5 17  1  0  0  0  0
  5 18  1  0  0  0  0
  6  1  1  0  0  0  0
  6  7  1  0  0  0  0
  8  6  2  0  0  0  0
  9  8  1  0  0  0  0
 10 11  1  0  0  0  0
 12 10  1  0  0  0  0
 13 10  1  0  0  0  0
 14  4  1  0  0  0  0
 14 17  1  0  0  0  0
 15 14  1  0  0  0  0
 16 14  1  0  0  0  0
 17  3  2  0  0  0  0
 18 21  1  0  0  0  0
 18 19  1  0  0  0  0
 20 18  1  0  0  0  0
M  END
