1
 OpenBabel05122313113D

 19 18  0  0  0  0  0  0  0  0999 V2000
   -0.1493    1.6554   -0.3177 C   0  0  0  0  0  2  0  0  0  0  0  0
    0.4330    2.3597   -1.5331 C   0  0  0  0  0  0  0  0  0  0  0  0
   -0.3778    2.4126   -2.2980 H   0  0  0  0  0  0  0  0  0  0  0  0
    1.1770    1.6955   -2.0053 H   0  0  0  0  0  0  0  0  0  0  0  0
    1.0193    3.7580   -1.2982 C   0  0  0  0  0  0  0  0  0  0  0  0
    0.2566    4.4937   -0.9841 H   0  0  0  0  0  0  0  0  0  0  0  0
    1.4959    4.1359   -2.2252 H   0  0  0  0  0  0  0  0  0  0  0  0
    1.7911    3.7389   -0.5038 H   0  0  0  0  0  0  0  0  0  0  0  0
   -0.8977    2.4326    0.6729 C   0  0  0  0  0  0  0  0  0  0  0  0
   -0.7443    2.0718    1.7068 H   0  0  0  0  0  0  0  0  0  0  0  0
   -1.7687    3.4806    0.5313 C   0  0  0  0  0  0  0  0  0  0  0  0
   -2.3543    4.1248    1.7612 C   0  0  0  0  0  0  0  0  0  0  0  0
   -1.9565    3.6808    2.6934 H   0  0  0  0  0  0  0  0  0  0  0  0
   -3.4632    4.0310    1.7743 H   0  0  0  0  0  0  0  0  0  0  0  0
   -2.1394    5.2161    1.7720 H   0  0  0  0  0  0  0  0  0  0  0  0
   -2.3040    4.0238   -0.7647 C   0  0  0  0  0  0  0  0  0  0  0  0
   -1.8978    3.5246   -1.6597 H   0  0  0  0  0  0  0  0  0  0  0  0
   -2.1141    5.1162   -0.8482 H   0  0  0  0  0  0  0  0  0  0  0  0
   -3.4105    3.9080   -0.7882 H   0  0  0  0  0  0  0  0  0  0  0  0
  1  9  1  0  0  0  0
  2  5  1  0  0  0  0
  2  1  1  0  0  0  0
  3  2  1  0  0  0  0
  4  2  1  0  0  0  0
  5  6  1  0  0  0  0
  5  8  1  0  0  0  0
  7  5  1  0  0  0  0
  9 10  1  0  0  0  0
 11  9  2  0  0  0  0
 11 12  1  0  0  0  0
 12 15  1  0  0  0  0
 12 14  1  0  0  0  0
 12 13  1  0  0  0  0
 16 11  1  0  0  0  0
 17 16  1  0  0  0  0
 18 16  1  0  0  0  0
 19 16  1  0  0  0  0
M  END
