7
 OpenBabel05122313113D

 53 56  0  0  0  0  0  0  0  0999 V2000
    2.6397   -1.6420    0.2685 N   0  0  0  0  0  0  0  0  0  0  0  0
    1.7610    0.1504   -0.6251 N   0  0  0  0  0  0  0  0  0  0  0  0
   -2.5277    0.8576    0.5901 N   0  0  0  0  0  0  0  0  0  0  0  0
   -1.7519    3.4613   -0.3980 O   0  0  0  0  0  0  0  0  0  0  0  0
    1.9640    2.2833    1.3209 O   0  0  0  0  0  0  0  0  0  0  0  0
   -4.4181    0.7051    1.9106 O   0  0  0  0  0  0  0  0  0  0  0  0
    1.4354   -1.0477   -0.0306 C   0  0  0  0  0  2  0  0  0  0  0  0
    3.7123   -0.8341   -0.1014 C   0  0  0  0  0  0  0  0  0  0  0  0
    5.1001   -0.9928    0.0223 C   0  0  0  0  0  0  0  0  0  0  0  0
    5.5386   -1.8944    0.4726 H   0  0  0  0  0  0  0  0  0  0  0  0
    5.9062    0.0551   -0.4497 C   0  0  0  0  0  0  0  0  0  0  0  0
    7.0000   -0.0302   -0.3705 H   0  0  0  0  0  0  0  0  0  0  0  0
    5.3409    1.2166   -1.0227 C   0  0  0  0  0  0  0  0  0  0  0  0
    6.0048    2.0182   -1.3790 H   0  0  0  0  0  0  0  0  0  0  0  0
    3.9515    1.3721   -1.1484 C   0  0  0  0  0  0  0  0  0  0  0  0
    3.5020    2.2740   -1.5849 H   0  0  0  0  0  0  0  0  0  0  0  0
    3.1489    0.3240   -0.6797 C   0  0  0  0  0  0  0  0  0  0  0  0
    0.8657    1.0883   -1.2371 C   0  0  0  0  0  0  0  0  0  0  0  0
    1.0048    1.2760   -2.6239 C   0  0  0  0  0  0  0  0  0  0  0  0
    1.7332    0.6681   -3.1767 H   0  0  0  0  0  0  0  0  0  0  0  0
    0.1847    2.1955   -3.2792 C   0  0  0  0  0  0  0  0  0  0  0  0
    0.2713    2.3307   -4.3672 H   0  0  0  0  0  0  0  0  0  0  0  0
   -0.7644    2.9365   -2.5615 C   0  0  0  0  0  0  0  0  0  0  0  0
   -1.3984    3.6622   -3.0867 H   0  0  0  0  0  0  0  0  0  0  0  0
   -0.8881    2.7560   -1.1714 C   0  0  0  0  0  0  0  0  0  0  0  0
   -0.0797    1.8039   -0.4761 C   0  0  0  0  0  0  0  0  0  0  0  0
   -0.2729    1.6269    0.9867 C   0  0  0  0  0  0  0  0  0  0  0  0
   -1.5404    1.2380    1.5070 C   0  0  0  0  0  0  0  0  0  0  0  0
   -1.7577    1.2117    2.9041 C   0  0  0  0  0  0  0  0  0  0  0  0
   -2.7532    0.9441    3.2741 H   0  0  0  0  0  0  0  0  0  0  0  0
   -0.7013    1.5197    3.7662 C   0  0  0  0  0  0  0  0  0  0  0  0
   -0.8713    1.4899    4.8534 H   0  0  0  0  0  0  0  0  0  0  0  0
    0.5733    1.8524    3.2828 C   0  0  0  0  0  0  0  0  0  0  0  0
    1.3841    2.0847    3.9845 H   0  0  0  0  0  0  0  0  0  0  0  0
    0.7794    1.9180    1.8916 C   0  0  0  0  0  0  0  0  0  0  0  0
    2.7952   -2.9642    0.8417 C   0  0  0  0  0  0  0  0  0  0  0  0
    3.4599   -3.5779    0.2012 H   0  0  0  0  0  0  0  0  0  0  0  0
    1.7968   -3.4354    0.8870 H   0  0  0  0  0  0  0  0  0  0  0  0
    3.2290   -2.9071    1.8612 H   0  0  0  0  0  0  0  0  0  0  0  0
   -2.6849    4.3231   -1.0195 C   0  0  0  0  0  0  0  0  0  0  0  0
   -2.1862    5.1620   -1.5549 H   0  0  0  0  0  0  0  0  0  0  0  0
   -3.3117    4.7361   -0.2080 H   0  0  0  0  0  0  0  0  0  0  0  0
   -3.3351    3.7757   -1.7383 H   0  0  0  0  0  0  0  0  0  0  0  0
    3.0809    2.5115    2.1577 C   0  0  0  0  0  0  0  0  0  0  0  0
    2.9214    3.3792    2.8361 H   0  0  0  0  0  0  0  0  0  0  0  0
    3.9325    2.7236    1.4848 H   0  0  0  0  0  0  0  0  0  0  0  0
    3.3256    1.6165    2.7726 H   0  0  0  0  0  0  0  0  0  0  0  0
   -3.8756    0.6199    0.8104 C   0  0  0  0  0  0  0  0  0  0  0  0
   -4.6279    0.2458   -0.4558 C   0  0  0  0  0  0  0  0  0  0  0  0
   -5.6509   -0.0630   -0.1798 H   0  0  0  0  0  0  0  0  0  0  0  0
   -4.1091   -0.5703   -1.0028 H   0  0  0  0  0  0  0  0  0  0  0  0
   -4.6837    1.1154   -1.1436 H   0  0  0  0  0  0  0  0  0  0  0  0
   -2.1826    0.6290   -0.3528 H   0  0  0  0  0  0  0  0  0  0  0  0
  1 36  1  0  0  0  0
  2  7  1  0  0  0  0
  3 48  1  0  0  0  0
  3 28  1  0  0  0  0
  5 35  1  0  0  0  0
  5 44  1  0  0  0  0
  7  1  1  0  0  0  0
  8  9  1  0  0  0  0
  8  1  1  0  0  0  0
  9 10  1  0  0  0  0
 11 12  1  0  0  0  0
 11  9  2  0  0  0  0
 13 11  1  0  0  0  0
 14 13  1  0  0  0  0
 15 13  2  0  0  0  0
 15 17  1  0  0  0  0
 16 15  1  0  0  0  0
 17  2  1  0  0  0  0
 17  8  2  0  0  0  0
 18  2  1  0  0  0  0
 18 26  1  0  0  0  0
 19 18  2  0  0  0  0
 20 19  1  0  0  0  0
 21 19  1  0  0  0  0
 21 23  2  0  0  0  0
 22 21  1  0  0  0  0
 23 25  1  0  0  0  0
 24 23  1  0  0  0  0
 25 26  2  0  0  0  0
 25  4  1  0  0  0  0
 26 27  1  0  0  0  0
 27 28  2  0  0  0  0
 27 35  1  0  0  0  0
 28 29  1  0  0  0  0
 29 30  1  0  0  0  0
 29 31  2  0  0  0  0
 31 32  1  0  0  0  0
 33 31  1  0  0  0  0
 33 34  1  0  0  0  0
 35 33  2  0  0  0  0
 36 38  1  0  0  0  0
 36 39  1  0  0  0  0
 37 36  1  0  0  0  0
 40  4  1  0  0  0  0
 40 42  1  0  0  0  0
 41 40  1  0  0  0  0
 43 40  1  0  0  0  0
 44 47  1  0  0  0  0
 44 45  1  0  0  0  0
 46 44  1  0  0  0  0
 48  6  2  0  0  0  0
 49 50  1  0  0  0  0
 49 48  1  0  0  0  0
 51 49  1  0  0  0  0
 52 49  1  0  0  0  0
 53  3  1  0  0  0  0
M  END
