10
 OpenBabel05122313113D

 27 27  0  0  1  0  0  0  0  0999 V2000
   -2.3627   -2.0730    0.9987 O   0  0  0  0  0  0  0  0  0  0  0  0
   -2.5743   -0.0853   -0.0983 N   0  0  0  0  0  0  0  0  0  0  0  0
   -0.1397   -0.0623   -0.4540 C   0  0  1  0  0  3  0  0  0  0  0  0
    0.4259   -1.3895   -0.5284 C   0  0  0  0  0  0  0  0  0  0  0  0
    0.1102   -2.2316    0.0979 H   0  0  0  0  0  0  0  0  0  0  0  0
    1.4263   -1.3830   -1.5471 C   0  0  0  0  0  0  0  0  0  0  0  0
    2.0509   -2.2369   -1.8368 H   0  0  0  0  0  0  0  0  0  0  0  0
    1.4872   -0.0707   -2.1241 C   0  0  0  0  0  3  0  0  0  0  0  0
    2.1564    0.2540   -2.9286 H   0  0  0  0  0  0  0  0  0  0  0  0
    0.5163    0.7406   -1.4438 C   0  0  0  0  0  3  0  0  0  0  0  0
    0.3179    1.8028   -1.6358 H   0  0  0  0  0  0  0  0  0  0  0  0
   -1.2813    0.3473    0.4378 C   0  0  0  0  0  0  0  0  0  0  0  0
   -1.1640   -0.1197    1.4334 H   0  0  0  0  0  0  0  0  0  0  0  0
   -1.2996    1.4476    0.5647 H   0  0  0  0  0  0  0  0  0  0  0  0
   -3.2604    0.8091   -1.0133 C   0  0  0  0  0  0  0  0  0  0  0  0
   -3.8860    0.2212   -1.7175 H   0  0  0  0  0  0  0  0  0  0  0  0
   -2.5000    1.2970   -1.6655 H   0  0  0  0  0  0  0  0  0  0  0  0
   -4.1091    1.8704   -0.3536 C   0  0  0  0  0  0  0  0  0  0  0  0
   -4.5580    2.6050   -1.0463 H   0  0  0  0  0  0  0  0  0  0  0  0
   -4.3415    1.9660    0.9656 C   0  0  0  0  0  0  0  0  0  0  0  0
   -3.9036    1.2452    1.6755 H   0  0  0  0  0  0  0  0  0  0  0  0
   -4.9745    2.7654    1.3789 H   0  0  0  0  0  0  0  0  0  0  0  0
   -3.0379   -1.3343    0.2802 C   0  0  0  0  0  0  0  0  0  0  0  0
   -4.4136   -1.7406   -0.2266 C   0  0  0  0  0  0  0  0  0  0  0  0
   -4.7000   -2.6672    0.3001 H   0  0  0  0  0  0  0  0  0  0  0  0
   -4.3921   -1.9517   -1.3159 H   0  0  0  0  0  0  0  0  0  0  0  0
   -5.1766   -0.9575   -0.0464 H   0  0  0  0  0  0  0  0  0  0  0  0
  2 23  1  0  0  0  0
  2 12  1  0  0  0  0
  3 12  1  6  0  0  0
  4  3  1  0  0  0  0
  4  5  1  0  0  0  0
  6  4  2  0  0  0  0
  7  6  1  0  0  0  0
  8  6  1  0  0  0  0
  8 10  1  0  0  0  0
  9  8  1  0  0  0  0
 10  3  1  0  0  0  0
 11 10  1  0  0  0  0
 12 14  1  0  0  0  0
 12 13  1  0  0  0  0
 15 18  1  0  0  0  0
 15  2  1  0  0  0  0
 16 15  1  0  0  0  0
 17 15  1  0  0  0  0
 18 20  2  0  0  0  0
 19 18  1  0  0  0  0
 20 22  1  0  0  0  0
 20 21  1  0  0  0  0
 23  1  2  0  0  0  0
 24 27  1  0  0  0  0
 24 23  1  0  0  0  0
 24 25  1  0  0  0  0
 26 24  1  0  0  0  0
M  END
