4
 OpenBabel05122313113D

 31 32  0  0  1  0  0  0  0  0999 V2000
   -1.3423   -1.4243   -0.0329 S   0  0  0  0  0  0  0  0  0  0  0  0
    3.0610    2.5087   -0.4155 O   0  0  0  0  0  0  0  0  0  0  0  0
   -0.2109   -0.0573   -0.1758 C   0  0  1  0  0  3  0  0  0  0  0  0
    0.4230    0.1863   -1.4253 C   0  0  0  0  0  3  0  0  0  0  0  0
    1.5187    1.0985   -1.5062 C   0  0  0  0  0  0  0  0  0  0  0  0
    1.9557    1.7373   -0.2940 C   0  0  0  0  0  0  0  0  0  0  0  0
    1.3089    1.3996    0.9231 C   0  0  0  0  0  3  0  0  0  0  0  0
   -0.1595    1.0234    0.8942 C   0  0  0  0  0  0  0  0  0  0  0  0
   -2.9237   -0.5910   -0.0366 C   0  0  0  0  0  0  0  0  0  0  0  0
   -3.9958   -1.2054    0.6441 C   0  0  0  0  0  0  0  0  0  0  0  0
   -5.2658   -0.6180    0.6319 C   0  0  0  0  0  0  0  0  0  0  0  0
   -5.5062    0.6044   -0.0318 C   0  0  0  0  0  0  0  0  0  0  0  0
   -4.4231    1.2084   -0.6998 C   0  0  0  0  0  0  0  0  0  0  0  0
   -3.1499    0.6209   -0.7166 C   0  0  0  0  0  0  0  0  0  0  0  0
   -6.8727    1.2411   -0.0082 C   0  0  0  0  0  0  0  0  0  0  0  0
    3.6762    3.0035    0.7664 C   0  0  0  0  0  0  0  0  0  0  0  0
    0.1486   -0.4143   -2.3055 H   0  0  0  0  0  0  0  0  0  0  0  0
    2.0482    1.2998   -2.4458 H   0  0  0  0  0  0  0  0  0  0  0  0
    1.7513    1.7407    1.8693 H   0  0  0  0  0  0  0  0  0  0  0  0
   -0.8497    1.8772    0.6933 H   0  0  0  0  0  0  0  0  0  0  0  0
   -0.4551    0.5842    1.8655 H   0  0  0  0  0  0  0  0  0  0  0  0
   -3.8257   -2.1468    1.1889 H   0  0  0  0  0  0  0  0  0  0  0  0
   -6.0919   -1.1158    1.1648 H   0  0  0  0  0  0  0  0  0  0  0  0
   -4.5815    2.1598   -1.2326 H   0  0  0  0  0  0  0  0  0  0  0  0
   -2.3304    1.1030   -1.2703 H   0  0  0  0  0  0  0  0  0  0  0  0
   -6.9311    2.1084   -0.6941 H   0  0  0  0  0  0  0  0  0  0  0  0
   -7.1321    1.6021    1.0100 H   0  0  0  0  0  0  0  0  0  0  0  0
   -7.6625    0.5195   -0.3021 H   0  0  0  0  0  0  0  0  0  0  0  0
    4.5141    3.6416    0.4322 H   0  0  0  0  0  0  0  0  0  0  0  0
    2.9708    3.6109    1.3738 H   0  0  0  0  0  0  0  0  0  0  0  0
    4.0797    2.1753    1.3879 H   0  0  0  0  0  0  0  0  0  0  0  0
  2  6  1  0  0  0  0
  2 16  1  0  0  0  0
  3  1  1  6  0  0  0
  3  8  1  0  0  0  0
  4  3  1  0  0  0  0
  5  4  1  0  0  0  0
  5  6  2  0  0  0  0
  6  7  1  0  0  0  0
  7 19  1  0  0  0  0
  8  7  1  0  0  0  0
  8 21  1  0  0  0  0
  9  1  1  0  0  0  0
  9 10  1  0  0  0  0
 10 22  1  0  0  0  0
 11 10  2  0  0  0  0
 11 23  1  0  0  0  0
 12 15  1  0  0  0  0
 12 11  1  0  0  0  0
 13 12  2  0  0  0  0
 14 13  1  0  0  0  0
 14  9  2  0  0  0  0
 15 27  1  0  0  0  0
 16 30  1  0  0  0  0
 16 31  1  0  0  0  0
 17  4  1  0  0  0  0
 18  5  1  0  0  0  0
 20  8  1  0  0  0  0
 24 13  1  0  0  0  0
 25 14  1  0  0  0  0
 26 15  1  0  0  0  0
 28 15  1  0  0  0  0
 29 16  1  0  0  0  0
M  END
