17
 OpenBabel05122313113D

 44 46  0  0  1  0  0  0  0  0999 V2000
   -0.4355    0.0806    0.4694 P   0  0  0  0  0  0  0  0  0  0  0  0
   -0.2905    0.3923    2.3276 C   0  0  0  0  0  0  0  0  0  0  0  0
   -1.2985    0.3373    2.7838 H   0  0  0  0  0  0  0  0  0  0  0  0
    0.3038   -0.4643    2.7073 H   0  0  0  0  0  0  0  0  0  0  0  0
    0.3777    1.7009    2.6173 C   0  0  0  0  0  0  0  0  0  0  0  0
   -0.2867    2.5565    2.8224 H   0  0  0  0  0  0  0  0  0  0  0  0
    1.7105    1.9176    2.6001 C   0  0  0  0  0  0  0  0  0  0  0  0
    2.0710    2.9382    2.8108 H   0  0  0  0  0  0  0  0  0  0  0  0
    2.7461    0.8710    2.2727 C   0  0  0  0  0  0  0  0  0  0  0  0
    3.7470    1.2223    2.6057 H   0  0  0  0  0  0  0  0  0  0  0  0
    2.5447   -0.0596    2.8473 H   0  0  0  0  0  0  0  0  0  0  0  0
    2.8438    0.4977    0.8026 C   0  0  1  0  0  3  0  0  0  0  0  0
    2.3931    1.3791   -0.2383 C   0  0  0  0  0  0  0  0  0  0  0  0
    1.9040    2.3249    0.0341 H   0  0  0  0  0  0  0  0  0  0  0  0
    2.5541    1.0379   -1.6030 C   0  0  0  0  0  0  0  0  0  0  0  0
    2.1883    1.7185   -2.3845 H   0  0  0  0  0  0  0  0  0  0  0  0
    3.0944   -0.2359   -1.9642 C   0  0  0  0  0  3  0  0  0  0  0  0
    3.1445   -0.5338   -3.0205 H   0  0  0  0  0  0  0  0  0  0  0  0
    3.5510   -1.1198   -0.9526 C   0  0  0  0  0  0  0  0  0  0  0  0
    3.9483   -2.1090   -1.2164 H   0  0  0  0  0  0  0  0  0  0  0  0
    3.4199   -0.7443    0.4190 C   0  0  0  0  0  0  0  0  0  0  0  0
    3.7159   -1.4594    1.2015 H   0  0  0  0  0  0  0  0  0  0  0  0
   -1.8403   -1.1201    0.4060 C   0  0  0  0  0  0  0  0  0  0  0  0
   -1.9638   -2.1458    1.3658 C   0  0  0  0  0  0  0  0  0  0  0  0
   -1.2507   -2.2183    2.1997 H   0  0  0  0  0  0  0  0  0  0  0  0
   -2.9872   -3.0993    1.2579 C   0  0  0  0  0  0  0  0  0  0  0  0
   -3.0718   -3.8939    2.0147 H   0  0  0  0  0  0  0  0  0  0  0  0
   -3.8926   -3.0458    0.1872 C   0  0  0  0  0  0  0  0  0  0  0  0
   -4.6932   -3.7962    0.1023 H   0  0  0  0  0  0  0  0  0  0  0  0
   -3.7682   -2.0343   -0.7785 C   0  0  0  0  0  0  0  0  0  0  0  0
   -4.4702   -1.9887   -1.6250 H   0  0  0  0  0  0  0  0  0  0  0  0
   -2.7496   -1.0768   -0.6716 C   0  0  0  0  0  0  0  0  0  0  0  0
   -2.6592   -0.2888   -1.4338 H   0  0  0  0  0  0  0  0  0  0  0  0
   -1.2965    1.6252   -0.0945 C   0  0  0  0  0  0  0  0  0  0  0  0
   -0.8843    2.2473   -1.2863 C   0  0  0  0  0  0  0  0  0  0  0  0
   -0.0553    1.7976   -1.8529 H   0  0  0  0  0  0  0  0  0  0  0  0
   -1.5314    3.4057   -1.7473 C   0  0  0  0  0  0  0  0  0  0  0  0
   -1.2030    3.8805   -2.6845 H   0  0  0  0  0  0  0  0  0  0  0  0
   -2.5961    3.9528   -1.0162 C   0  0  0  0  0  0  0  0  0  0  0  0
   -3.1035    4.8617   -1.3740 H   0  0  0  0  0  0  0  0  0  0  0  0
   -3.0202    3.3318    0.1716 C   0  0  0  0  0  0  0  0  0  0  0  0
   -3.8623    3.7517    0.7429 H   0  0  0  0  0  0  0  0  0  0  0  0
   -2.3786    2.1719    0.6269 C   0  0  0  0  0  0  0  0  0  0  0  0
   -2.7351    1.6800    1.5453 H   0  0  0  0  0  0  0  0  0  0  0  0
  1  2  1  0  0  0  0
  2  5  1  0  0  0  0
  2  4  1  0  0  0  0
  2  3  1  0  0  0  0
  5  6  1  0  0  0  0
  7  5  2  0  0  0  0
  7  8  1  0  0  0  0
  9  7  1  0  0  0  0
  9 10  1  0  0  0  0
  9 11  1  0  0  0  0
 12  9  1  6  0  0  0
 13 14  1  0  0  0  0
 13 12  1  0  0  0  0
 15 13  2  0  0  0  0
 16 15  1  0  0  0  0
 17 15  1  0  0  0  0
 17 19  1  0  0  0  0
 18 17  1  0  0  0  0
 19 21  2  0  0  0  0
 20 19  1  0  0  0  0
 21 12  1  0  0  0  0
 21 22  1  0  0  0  0
 23  1  1  0  0  0  0
 23 24  1  0  0  0  0
 24 25  1  0  0  0  0
 26 24  2  0  0  0  0
 26 27  1  0  0  0  0
 28 26  1  0  0  0  0
 29 28  1  0  0  0  0
 30 32  1  0  0  0  0
 30 28  2  0  0  0  0
 31 30  1  0  0  0  0
 32 23  2  0  0  0  0
 33 32  1  0  0  0  0
 34  1  1  0  0  0  0
 34 43  1  0  0  0  0
 35 34  2  0  0  0  0
 36 35  1  0  0  0  0
 37 35  1  0  0  0  0
 37 39  2  0  0  0  0
 38 37  1  0  0  0  0
 39 41  1  0  0  0  0
 40 39  1  0  0  0  0
 41 43  2  0  0  0  0
 41 42  1  0  0  0  0
 43 44  1  0  0  0  0
M  END
