1
 OpenBabel05122313113D

 35 37  0  0  0  0  0  0  0  0999 V2000
   -0.5241   -1.3018    0.6169 C   0  0  0  0  0  2  0  0  0  0  0  0
    0.1710   -1.9539    1.6051 N   0  0  0  0  0  0  0  0  0  0  0  0
   -0.3240   -3.2377    1.8137 C   0  0  0  0  0  0  0  0  0  0  0  0
    0.1163   -3.9245    2.5420 H   0  0  0  0  0  0  0  0  0  0  0  0
   -1.3650   -3.3986    0.9415 C   0  0  0  0  0  0  0  0  0  0  0  0
   -2.0265   -4.2510    0.7622 H   0  0  0  0  0  0  0  0  0  0  0  0
   -1.4648   -2.2157    0.2173 N   0  0  0  0  0  0  0  0  0  0  0  0
    1.4059   -1.4494    2.2112 C   0  0  0  0  0  0  0  0  0  0  0  0
    1.8273   -2.2782    2.8145 H   0  0  0  0  0  0  0  0  0  0  0  0
    1.1798   -0.6149    2.9007 H   0  0  0  0  0  0  0  0  0  0  0  0
    2.3956   -0.9778    1.1751 C   0  0  0  0  0  0  0  0  0  0  0  0
    2.7568   -1.7906    0.0884 C   0  0  0  0  0  0  0  0  0  0  0  0
    2.2456   -3.0267   -0.0102 F   0  0  0  0  0  0  0  0  0  0  0  0
    3.5851   -1.3252   -0.9410 C   0  0  0  0  0  0  0  0  0  0  0  0
    3.8755   -2.1014   -1.9833 F   0  0  0  0  0  0  0  0  0  0  0  0
    4.1008   -0.0213   -0.8693 C   0  0  0  0  0  0  0  0  0  0  0  0
    4.8829    0.4418   -1.8438 F   0  0  0  0  0  0  0  0  0  0  0  0
    3.7937    0.7968    0.2299 C   0  0  0  0  0  0  0  0  0  0  0  0
    4.2872    2.0400    0.2965 F   0  0  0  0  0  0  0  0  0  0  0  0
    2.9483    0.3118    1.2369 C   0  0  0  0  0  0  0  0  0  0  0  0
    2.6617    1.1165    2.2755 F   0  0  0  0  0  0  0  0  0  0  0  0
   -2.3512   -2.0166   -0.9265 C   0  0  0  0  0  0  0  0  0  0  0  0
   -2.6227   -3.0270   -1.2994 H   0  0  0  0  0  0  0  0  0  0  0  0
   -1.7430   -1.5244   -1.7141 H   0  0  0  0  0  0  0  0  0  0  0  0
   -3.6056   -1.2194   -0.6406 C   0  0  0  0  0  0  0  0  0  0  0  0
   -4.2388   -1.2422    0.6156 C   0  0  0  0  0  0  0  0  0  0  0  0
   -3.7898   -1.8156    1.4418 H   0  0  0  0  0  0  0  0  0  0  0  0
   -5.4276   -0.5270    0.8275 C   0  0  0  0  0  0  0  0  0  0  0  0
   -5.9066   -0.5456    1.8183 H   0  0  0  0  0  0  0  0  0  0  0  0
   -6.0048    0.2102   -0.2186 C   0  0  0  0  0  0  0  0  0  0  0  0
   -6.9368    0.7710   -0.0516 H   0  0  0  0  0  0  0  0  0  0  0  0
   -5.3803    0.2354   -1.4760 C   0  0  0  0  0  0  0  0  0  0  0  0
   -5.8183    0.8207   -2.2988 H   0  0  0  0  0  0  0  0  0  0  0  0
   -4.1844   -0.4681   -1.6818 C   0  0  0  0  0  0  0  0  0  0  0  0
   -3.6810   -0.4275   -2.6604 H   0  0  0  0  0  0  0  0  0  0  0  0
  1  2  1  0  0  0  0
  2  3  1  0  0  0  0
  2  8  1  0  0  0  0
  3  4  1  0  0  0  0
  5  3  2  0  0  0  0
  6  5  1  0  0  0  0
  7  1  1  0  0  0  0
  7  5  1  0  0  0  0
  8  9  1  0  0  0  0
  8 10  1  0  0  0  0
 11 20  1  0  0  0  0
 11  8  1  0  0  0  0
 12 11  2  0  0  0  0
 13 12  1  0  0  0  0
 14 16  2  0  0  0  0
 14 12  1  0  0  0  0
 15 14  1  0  0  0  0
 16 18  1  0  0  0  0
 17 16  1  0  0  0  0
 18 19  1  0  0  0  0
 18 20  2  0  0  0  0
 20 21  1  0  0  0  0
 22 25  1  0  0  0  0
 22  7  1  0  0  0  0
 23 22  1  0  0  0  0
 24 22  1  0  0  0  0
 25 26  1  0  0  0  0
 26 28  2  0  0  0  0
 26 27  1  0  0  0  0
 28 29  1  0  0  0  0
 30 31  1  0  0  0  0
 30 28  1  0  0  0  0
 32 30  2  0  0  0  0
 33 32  1  0  0  0  0
 34 32  1  0  0  0  0
 34 25  2  0  0  0  0
 35 34  1  0  0  0  0
M  END
