2
 OpenBabel05122313113D

 10  9  0  0  0  0  0  0  0  0999 V2000
    2.0480    1.3997   -0.6299 S   0  0  0  0  0  1  0  0  0  0  0  0
   -0.1457   -0.0149   -2.4303 C   0  0  0  0  0  3  0  0  0  0  0  0
    0.8671   -1.0224   -2.0631 C   0  0  0  0  0  3  0  0  0  0  0  0
    2.2924   -0.7069   -2.3351 C   0  0  0  0  0  0  0  0  0  0  0  0
    2.8625    0.4225   -1.8449 C   0  0  0  0  0  0  0  0  0  0  0  0
    0.2184    0.8999   -2.9316 H   0  0  0  0  0  0  0  0  0  0  0  0
   -1.0990   -0.3752   -2.8594 H   0  0  0  0  0  0  0  0  0  0  0  0
    0.6001   -2.0844   -2.2083 H   0  0  0  0  0  0  0  0  0  0  0  0
    2.8581   -1.3507   -3.0317 H   0  0  0  0  0  0  0  0  0  0  0  0
    3.8551    0.7793   -2.1674 H   0  0  0  0  0  0  0  0  0  0  0  0
  2  3  1  0  0  0  0
  4  3  1  0  0  0  0
  4  5  2  0  0  0  0
  5  1  1  0  0  0  0
  6  2  1  0  0  0  0
  7  2  1  0  0  0  0
  8  3  1  0  0  0  0
  9  4  1  0  0  0  0
 10  5  1  0  0  0  0
M  END
