12
 OpenBabel05122313113D

 36 38  0  0  0  0  0  0  0  0999 V2000
    0.8131    1.6605   -1.8038 O   0  0  0  0  0  0  0  0  0  0  0  0
    1.8760   -0.2735   -2.2099 O   0  0  0  0  0  0  0  0  0  0  0  0
   -2.5813   -3.5795   -0.7623 N   0  0  0  0  0  0  0  0  0  0  0  0
   -2.9463   -1.7341   -1.8190 N   0  0  0  0  0  0  0  0  0  0  0  0
   -0.5084   -0.3031   -2.2730 C   0  0  0  0  0  0  0  0  0  0  0  0
   -0.5020   -1.3748   -2.5125 H   0  0  0  0  0  0  0  0  0  0  0  0
   -0.1656    3.7295   -1.2308 C   0  0  0  0  0  0  0  0  0  0  0  0
    0.8550    4.1186   -1.0953 H   0  0  0  0  0  0  0  0  0  0  0  0
   -1.6128    1.8042   -1.7402 C   0  0  0  0  0  0  0  0  0  0  0  0
   -1.6717    0.3902   -2.0622 C   0  0  0  0  0  0  0  0  0  0  0  0
    0.8095    0.2994   -2.1216 C   0  0  0  0  0  0  0  0  0  0  0  0
   -2.4422   -2.2296   -0.6473 C   0  0  0  0  0  2  0  0  0  0  0  0
   -2.7424    2.6369   -1.5273 C   0  0  0  0  0  0  0  0  0  0  0  0
   -3.7552    2.2240   -1.6487 H   0  0  0  0  0  0  0  0  0  0  0  0
   -3.1626   -3.9258   -1.9740 C   0  0  0  0  0  0  0  0  0  0  0  0
   -3.3573   -4.9639   -2.2602 H   0  0  0  0  0  0  0  0  0  0  0  0
   -0.3229    2.3833   -1.6042 C   0  0  0  0  0  0  0  0  0  0  0  0
   -2.6117    3.9856   -1.1755 C   0  0  0  0  0  0  0  0  0  0  0  0
   -1.3019    4.5106   -1.0219 C   0  0  0  0  0  0  0  0  0  0  0  0
   -1.1772    5.5658   -0.7324 H   0  0  0  0  0  0  0  0  0  0  0  0
   -3.3903   -2.7529   -2.6485 C   0  0  0  0  0  0  0  0  0  0  0  0
   -3.8219   -2.5660   -3.6366 H   0  0  0  0  0  0  0  0  0  0  0  0
   -2.2358   -4.5400    0.2932 C   0  0  0  0  0  0  0  0  0  0  0  0
   -1.4388   -4.0660    0.8995 H   0  0  0  0  0  0  0  0  0  0  0  0
   -1.7936   -5.4299   -0.1977 H   0  0  0  0  0  0  0  0  0  0  0  0
   -3.0176   -0.3052   -2.1178 C   0  0  0  0  0  0  0  0  0  0  0  0
   -3.7128    0.1644   -1.3942 H   0  0  0  0  0  0  0  0  0  0  0  0
   -3.4739   -0.1860   -3.1216 H   0  0  0  0  0  0  0  0  0  0  0  0
   -3.8157    4.8639   -0.9565 C   0  0  0  0  0  0  0  0  0  0  0  0
   -3.8098    5.3076    0.0607 H   0  0  0  0  0  0  0  0  0  0  0  0
   -4.7629    4.3051   -1.0805 H   0  0  0  0  0  0  0  0  0  0  0  0
   -3.8270    5.7121   -1.6720 H   0  0  0  0  0  0  0  0  0  0  0  0
   -3.4342   -4.9170    1.1576 C   0  0  0  0  0  0  0  0  0  0  0  0
   -3.8520   -4.0239    1.6636 H   0  0  0  0  0  0  0  0  0  0  0  0
   -3.1252   -5.6425    1.9351 H   0  0  0  0  0  0  0  0  0  0  0  0
   -4.2387   -5.3853    0.5565 H   0  0  0  0  0  0  0  0  0  0  0  0
  1 17  1  0  0  0  0
  2 11  2  0  0  0  0
  3 12  1  0  0  0  0
  3 23  1  0  0  0  0
  4 12  1  0  0  0  0
  5 11  1  0  0  0  0
  5 10  2  0  0  0  0
  6  5  1  0  0  0  0
  7  8  1  0  0  0  0
  7 19  1  0  0  0  0
  9 17  1  0  0  0  0
  9 13  2  0  0  0  0
 10  9  1  0  0  0  0
 11  1  1  0  0  0  0
 13 18  1  0  0  0  0
 14 13  1  0  0  0  0
 15  3  1  0  0  0  0
 16 15  1  0  0  0  0
 17  7  2  0  0  0  0
 18 19  2  0  0  0  0
 18 29  1  0  0  0  0
 19 20  1  0  0  0  0
 21 15  2  0  0  0  0
 21  4  1  0  0  0  0
 22 21  1  0  0  0  0
 23 24  1  0  0  0  0
 23 33  1  0  0  0  0
 25 23  1  0  0  0  0
 26 10  1  0  0  0  0
 26  4  1  0  0  0  0
 26 27  1  0  0  0  0
 28 26  1  0  0  0  0
 29 30  1  0  0  0  0
 31 29  1  0  0  0  0
 32 29  1  0  0  0  0
 33 34  1  0  0  0  0
 33 35  1  0  0  0  0
 36 33  1  0  0  0  0
M  END
