5
 OpenBabel05122313113D

 39 41  0  0  0  0  0  0  0  0999 V2000
    5.0499   -0.2547    0.9616 O   0  0  0  0  0  0  0  0  0  0  0  0
    4.1159   -2.2930    0.9114 O   0  0  0  0  0  0  0  0  0  0  0  0
   -0.0483   -1.3972   -2.9280 N   0  0  0  0  0  0  0  0  0  0  0  0
    1.4794    0.1119   -2.6991 N   0  0  0  0  0  0  0  0  0  0  0  0
    0.4513   -0.4993   -2.0327 C   0  0  0  0  0  2  0  0  0  0  0  0
    1.6267   -0.4040   -3.9794 C   0  0  0  0  0  0  0  0  0  0  0  0
    2.3870   -0.0420   -4.6782 H   0  0  0  0  0  0  0  0  0  0  0  0
    0.6553   -1.3616   -4.1224 C   0  0  0  0  0  0  0  0  0  0  0  0
    0.4039   -2.0045   -4.9714 H   0  0  0  0  0  0  0  0  0  0  0  0
   -1.0976   -2.3747   -2.6148 C   0  0  0  0  0  0  0  0  0  0  0  0
   -1.6470   -2.5948   -3.5517 H   0  0  0  0  0  0  0  0  0  0  0  0
   -1.8168   -1.8934   -1.9250 H   0  0  0  0  0  0  0  0  0  0  0  0
   -0.5301   -3.6524   -1.9902 C   0  0  0  0  0  0  0  0  0  0  0  0
    0.1959   -4.1153   -2.6932 H   0  0  0  0  0  0  0  0  0  0  0  0
    0.0564   -3.3612   -1.0904 H   0  0  0  0  0  0  0  0  0  0  0  0
   -1.6285   -4.6440   -1.6094 C   0  0  0  0  0  0  0  0  0  0  0  0
   -2.3801   -4.1733   -0.9444 H   0  0  0  0  0  0  0  0  0  0  0  0
   -1.2015   -5.5272   -1.0952 H   0  0  0  0  0  0  0  0  0  0  0  0
   -2.1713   -5.0092   -2.5049 H   0  0  0  0  0  0  0  0  0  0  0  0
    2.3376    1.1292   -2.1100 C   0  0  0  0  0  0  0  0  0  0  0  0
    1.6927    1.9022   -1.6408 H   0  0  0  0  0  0  0  0  0  0  0  0
    2.8847    1.6330   -2.9315 H   0  0  0  0  0  0  0  0  0  0  0  0
    3.3115    0.6120   -1.0713 C   0  0  0  0  0  0  0  0  0  0  0  0
    3.3281   -0.6990   -0.6759 C   0  0  0  0  0  0  0  0  0  0  0  0
    2.6759   -1.4564   -1.1284 H   0  0  0  0  0  0  0  0  0  0  0  0
    4.1595   -1.1809    0.4196 C   0  0  0  0  0  0  0  0  0  0  0  0
    5.0912    1.0465    0.5579 C   0  0  0  0  0  0  0  0  0  0  0  0
    4.2244    1.5518   -0.4467 C   0  0  0  0  0  0  0  0  0  0  0  0
    4.3181    2.9269   -0.7823 C   0  0  0  0  0  0  0  0  0  0  0  0
    3.6567    3.3451   -1.5559 H   0  0  0  0  0  0  0  0  0  0  0  0
    5.2391    3.7799   -0.1629 C   0  0  0  0  0  0  0  0  0  0  0  0
    6.0921    3.2302    0.8286 C   0  0  0  0  0  0  0  0  0  0  0  0
    6.8269    3.8819    1.3264 H   0  0  0  0  0  0  0  0  0  0  0  0
    6.0244    1.8851    1.1897 C   0  0  0  0  0  0  0  0  0  0  0  0
    6.6817    1.4571    1.9594 H   0  0  0  0  0  0  0  0  0  0  0  0
    5.3398    5.2369   -0.5314 C   0  0  0  0  0  0  0  0  0  0  0  0
    5.1811    5.8866    0.3538 H   0  0  0  0  0  0  0  0  0  0  0  0
    4.5960    5.5204   -1.3002 H   0  0  0  0  0  0  0  0  0  0  0  0
    6.3474    5.4795   -0.9281 H   0  0  0  0  0  0  0  0  0  0  0  0
  3 10  1  0  0  0  0
  3  5  1  0  0  0  0
  4 20  1  0  0  0  0
  4  5  1  0  0  0  0
  6  4  1  0  0  0  0
  7  6  1  0  0  0  0
  8  6  2  0  0  0  0
  8  3  1  0  0  0  0
  9  8  1  0  0  0  0
 10 13  1  0  0  0  0
 10 12  1  0  0  0  0
 11 10  1  0  0  0  0
 13 16  1  0  0  0  0
 13 15  1  0  0  0  0
 14 13  1  0  0  0  0
 16 18  1  0  0  0  0
 16 17  1  0  0  0  0
 19 16  1  0  0  0  0
 20 21  1  0  0  0  0
 20 23  1  0  0  0  0
 22 20  1  0  0  0  0
 23 24  2  0  0  0  0
 23 28  1  0  0  0  0
 24 26  1  0  0  0  0
 25 24  1  0  0  0  0
 26  2  2  0  0  0  0
 26  1  1  0  0  0  0
 27  1  1  0  0  0  0
 27 34  1  0  0  0  0
 28 27  2  0  0  0  0
 29 28  1  0  0  0  0
 29 31  2  0  0  0  0
 30 29  1  0  0  0  0
 31 32  1  0  0  0  0
 32 34  2  0  0  0  0
 32 33  1  0  0  0  0
 34 35  1  0  0  0  0
 36 31  1  0  0  0  0
 36 37  1  0  0  0  0
 38 36  1  0  0  0  0
 39 36  1  0  0  0  0
M  END
