3
 OpenBabel05122313113D

 26 26  0  0  0  0  0  0  0  0999 V2000
    4.0205   -1.6423   -1.0857 C   0  0  0  0  0  0  0  0  0  0  0  0
    2.6264   -1.0850   -1.1978 C   0  0  0  0  0  3  0  0  0  0  0  0
    1.5405   -1.6219   -0.4381 C   0  0  0  0  0  3  0  0  0  0  0  0
    0.2308   -1.1317   -0.6881 C   0  0  0  0  0  0  0  0  0  0  0  0
   -2.1335   -0.9192   -0.0443 C   0  0  0  0  0  0  0  0  0  0  0  0
   -2.3235    0.3264   -0.6775 C   0  0  0  0  0  0  0  0  0  0  0  0
   -3.6010    0.9021   -0.7158 C   0  0  0  0  0  0  0  0  0  0  0  0
   -4.7162    0.2824   -0.1210 C   0  0  0  0  0  0  0  0  0  0  0  0
   -4.5024   -0.9530    0.5291 C   0  0  0  0  0  0  0  0  0  0  0  0
   -3.2402   -1.5497    0.5665 C   0  0  0  0  0  0  0  0  0  0  0  0
   -6.0883    0.9052   -0.1679 C   0  0  0  0  0  0  0  0  0  0  0  0
   -0.8783   -1.5452   -0.0009 N   0  0  0  0  0  4  0  0  0  0  0  0
   -0.7309   -2.1958    0.7739 H   0  0  0  0  0  0  0  0  0  0  0  0
    2.3770   -0.6855   -2.1960 H   0  0  0  0  0  0  0  0  0  0  0  0
    1.7164   -2.3682    0.3546 H   0  0  0  0  0  0  0  0  0  0  0  0
    0.0199   -0.6110   -1.6329 H   0  0  0  0  0  0  0  0  0  0  0  0
   -1.4697    0.8681   -1.1078 H   0  0  0  0  0  0  0  0  0  0  0  0
   -3.7276    1.8780   -1.2103 H   0  0  0  0  0  0  0  0  0  0  0  0
   -5.3493   -1.4631    1.0150 H   0  0  0  0  0  0  0  0  0  0  0  0
   -3.1031   -2.5201    1.0697 H   0  0  0  0  0  0  0  0  0  0  0  0
    4.1627   -2.4789   -1.8052 H   0  0  0  0  0  0  0  0  0  0  0  0
    4.2331   -2.0257   -0.0682 H   0  0  0  0  0  0  0  0  0  0  0  0
    4.7845   -0.8768   -1.3244 H   0  0  0  0  0  0  0  0  0  0  0  0
   -6.0624    1.9128   -0.6259 H   0  0  0  0  0  0  0  0  0  0  0  0
   -6.7944    0.2856   -0.7609 H   0  0  0  0  0  0  0  0  0  0  0  0
   -6.5252    1.0047    0.8474 H   0  0  0  0  0  0  0  0  0  0  0  0
  1 22  1  0  0  0  0
  2  1  1  0  0  0  0
  2  3  1  0  0  0  0
  3 15  1  0  0  0  0
  4  3  1  0  0  0  0
  4 12  2  0  0  0  0
  5 12  1  0  0  0  0
  5 10  1  0  0  0  0
  6  5  2  0  0  0  0
  7  6  1  0  0  0  0
  7  8  2  0  0  0  0
  8  9  1  0  0  0  0
  9 10  2  0  0  0  0
  9 19  1  0  0  0  0
 10 20  1  0  0  0  0
 11  8  1  0  0  0  0
 11 26  1  0  0  0  0
 12 13  1  0  0  0  0
 14  2  1  0  0  0  0
 16  4  1  0  0  0  0
 17  6  1  0  0  0  0
 18  7  1  0  0  0  0
 21  1  1  0  0  0  0
 23  1  1  0  0  0  0
 24 11  1  0  0  0  0
 25 11  1  0  0  0  0
M  END
