9
 OpenBabel05122313113D

 36 35  0  0  1  0  0  0  0  0999 V2000
   -3.2774   -2.8722   -0.1188 O   0  0  0  0  0  0  0  0  0  0  0  0
   -1.7841   -2.7636   -1.8314 O   0  0  0  0  0  0  0  0  0  0  0  0
   -4.1250    1.5784   -0.3482 O   0  0  0  0  0  0  0  0  0  0  0  0
   -4.2620   -0.4365   -1.3876 O   0  0  0  0  0  0  0  0  0  0  0  0
   -1.2323    2.0129   -1.5891 O   0  0  0  0  0  0  0  0  0  0  0  0
   -0.6781    3.4255    0.0961 O   0  0  0  0  0  0  0  0  0  0  0  0
    0.7102    2.2941    2.3059 O   0  0  0  0  0  0  0  0  0  0  0  0
   -1.0728    3.2906    3.3100 O   0  0  0  0  0  0  0  0  0  0  0  0
   -1.7145   -1.1058   -0.1177 C   0  0  0  0  0  2  0  0  0  0  0  0
   -2.3280    0.1047   -0.0298 C   0  0  1  0  0  3  0  0  0  0  0  0
   -1.6152    1.2506    0.6038 C   0  0  0  0  0  0  0  0  0  0  0  0
   -1.4319    1.3308    1.9557 C   0  0  0  0  0  0  0  0  0  0  0  0
   -2.2647   -2.3079   -0.8004 C   0  0  0  0  0  0  0  0  0  0  0  0
   -3.8836   -4.0053   -0.7475 C   0  0  0  0  0  0  0  0  0  0  0  0
   -4.5833   -4.4303   -0.0061 H   0  0  0  0  0  0  0  0  0  0  0  0
   -3.1202   -4.7540   -1.0395 H   0  0  0  0  0  0  0  0  0  0  0  0
   -4.4343   -3.6835   -1.6550 H   0  0  0  0  0  0  0  0  0  0  0  0
   -3.6561    0.3372   -0.6638 C   0  0  0  0  0  0  0  0  0  0  0  0
   -5.3717    1.9284   -0.9506 C   0  0  0  0  0  0  0  0  0  0  0  0
   -5.6054    2.9505   -0.6028 H   0  0  0  0  0  0  0  0  0  0  0  0
   -6.1716    1.2236   -0.6451 H   0  0  0  0  0  0  0  0  0  0  0  0
   -5.2979    1.9021   -2.0573 H   0  0  0  0  0  0  0  0  0  0  0  0
   -1.1233    2.3486   -0.2740 C   0  0  0  0  0  0  0  0  0  0  0  0
   -0.8436    3.0315   -2.5148 C   0  0  0  0  0  0  0  0  0  0  0  0
   -0.9970    2.6024   -3.5207 H   0  0  0  0  0  0  0  0  0  0  0  0
    0.2197    3.3098   -2.3715 H   0  0  0  0  0  0  0  0  0  0  0  0
   -1.4651    3.9396   -2.3791 H   0  0  0  0  0  0  0  0  0  0  0  0
   -0.6237    2.4403    2.5695 C   0  0  0  0  0  0  0  0  0  0  0  0
    1.5373    3.3606    2.7839 C   0  0  0  0  0  0  0  0  0  0  0  0
    2.5819    3.0141    2.6801 H   0  0  0  0  0  0  0  0  0  0  0  0
    1.3078    3.6001    3.8408 H   0  0  0  0  0  0  0  0  0  0  0  0
    1.3650    4.2672    2.1681 H   0  0  0  0  0  0  0  0  0  0  0  0
   -2.0357    0.3808    2.9406 C   0  0  0  0  0  0  0  0  0  0  0  0
   -2.9168   -0.1335    2.5144 H   0  0  0  0  0  0  0  0  0  0  0  0
   -2.3176    0.9266    3.8625 H   0  0  0  0  0  0  0  0  0  0  0  0
   -1.3094   -0.4214    3.2053 H   0  0  0  0  0  0  0  0  0  0  0  0
  2 13  2  0  0  0  0
  4 18  2  0  0  0  0
  5 23  1  0  0  0  0
  7 28  1  0  0  0  0
  7 29  1  0  0  0  0
 10  9  1  6  0  0  0
 10 11  1  0  0  0  0
 11 12  2  0  0  0  0
 12 28  1  0  0  0  0
 12 33  1  0  0  0  0
 13  1  1  0  0  0  0
 13  9  1  0  0  0  0
 14  1  1  0  0  0  0
 14 15  1  0  0  0  0
 16 14  1  0  0  0  0
 17 14  1  0  0  0  0
 18  3  1  0  0  0  0
 18 10  1  0  0  0  0
 19 21  1  0  0  0  0
 19 20  1  0  0  0  0
 19  3  1  0  0  0  0
 22 19  1  0  0  0  0
 23  6  2  0  0  0  0
 23 11  1  0  0  0  0
 24 27  1  0  0  0  0
 24 26  1  0  0  0  0
 24  5  1  0  0  0  0
 25 24  1  0  0  0  0
 28  8  2  0  0  0  0
 29 31  1  0  0  0  0
 30 29  1  0  0  0  0
 32 29  1  0  0  0  0
 33 36  1  0  0  0  0
 33 35  1  0  0  0  0
 34 33  1  0  0  0  0
M  END
