4
 OpenBabel05122313113D

 37 39  0  0  0  0  0  0  0  0999 V2000
   -0.4266    2.0519   -0.3072 N   0  0  0  0  0  0  0  0  0  0  0  0
   -1.3942    2.3516   -0.5508 H   0  0  0  0  0  0  0  0  0  0  0  0
    1.0885    0.6943    0.4655 N   0  0  0  0  0  0  0  0  0  0  0  0
   -0.2342    0.7720    0.1027 C   0  0  0  0  0  2  0  0  0  0  0  0
    0.7254    2.8113   -0.2117 C   0  0  0  0  0  0  0  0  0  0  0  0
    1.0021    4.1558   -0.5007 C   0  0  0  0  0  0  0  0  0  0  0  0
    0.2226    4.8286   -0.8848 H   0  0  0  0  0  0  0  0  0  0  0  0
    2.3126    4.5964   -0.2756 C   0  0  0  0  0  0  0  0  0  0  0  0
    2.5729    5.6435   -0.4891 H   0  0  0  0  0  0  0  0  0  0  0  0
    3.3080    3.7220    0.2179 C   0  0  0  0  0  0  0  0  0  0  0  0
    4.3277    4.1030    0.3753 H   0  0  0  0  0  0  0  0  0  0  0  0
    3.0341    2.3778    0.5071 C   0  0  0  0  0  0  0  0  0  0  0  0
    3.8177    1.7021    0.8704 H   0  0  0  0  0  0  0  0  0  0  0  0
    1.7197    1.9328    0.2876 C   0  0  0  0  0  0  0  0  0  0  0  0
    1.7446   -0.4861    1.0380 C   0  0  0  0  0  0  0  0  0  0  0  0
    1.0368   -1.3230    0.9058 H   0  0  0  0  0  0  0  0  0  0  0  0
    1.8395   -0.3230    2.1284 H   0  0  0  0  0  0  0  0  0  0  0  0
    3.0910   -0.8157    0.4264 C   0  0  0  0  0  0  0  0  0  0  0  0
    3.1989   -1.0789   -0.9654 C   0  0  0  0  0  0  0  0  0  0  0  0
    1.9929   -1.0640   -1.8720 C   0  0  0  0  0  0  0  0  0  0  0  0
    1.1505   -1.6454   -1.4476 H   0  0  0  0  0  0  0  0  0  0  0  0
    1.6142   -0.0351   -2.0447 H   0  0  0  0  0  0  0  0  0  0  0  0
    2.2371   -1.4971   -2.8603 H   0  0  0  0  0  0  0  0  0  0  0  0
    4.4622   -1.3674   -1.5084 C   0  0  0  0  0  0  0  0  0  0  0  0
    4.5371   -1.5696   -2.5894 H   0  0  0  0  0  0  0  0  0  0  0  0
    5.6247   -1.4150   -0.7181 C   0  0  0  0  0  0  0  0  0  0  0  0
    6.9633   -1.7319   -1.3350 C   0  0  0  0  0  0  0  0  0  0  0  0
    7.7805   -1.6805   -0.5901 H   0  0  0  0  0  0  0  0  0  0  0  0
    6.9702   -2.7510   -1.7755 H   0  0  0  0  0  0  0  0  0  0  0  0
    7.2051   -1.0273   -2.1574 H   0  0  0  0  0  0  0  0  0  0  0  0
    5.4894   -1.1737    0.6587 C   0  0  0  0  0  0  0  0  0  0  0  0
    6.3832   -1.2182    1.3018 H   0  0  0  0  0  0  0  0  0  0  0  0
    4.2456   -0.8776    1.2486 C   0  0  0  0  0  0  0  0  0  0  0  0
    4.1844   -0.6336    2.7401 C   0  0  0  0  0  0  0  0  0  0  0  0
    5.1926   -0.7077    3.1899 H   0  0  0  0  0  0  0  0  0  0  0  0
    3.5379   -1.3715    3.2592 H   0  0  0  0  0  0  0  0  0  0  0  0
    3.7859    0.3733    2.9884 H   0  0  0  0  0  0  0  0  0  0  0  0
  1  5  1  0  0  0  0
  1  4  1  0  0  0  0
  2  1  1  0  0  0  0
  3 15  1  0  0  0  0
  4  3  1  0  0  0  0
  5 14  1  0  0  0  0
  6  8  1  0  0  0  0
  6  5  2  0  0  0  0
  7  6  1  0  0  0  0
  8 10  2  0  0  0  0
  9  8  1  0  0  0  0
 10 11  1  0  0  0  0
 10 12  1  0  0  0  0
 12 13  1  0  0  0  0
 14  3  1  0  0  0  0
 14 12  2  0  0  0  0
 15 17  1  0  0  0  0
 16 15  1  0  0  0  0
 18 15  1  0  0  0  0
 18 33  1  0  0  0  0
 19 18  2  0  0  0  0
 20 21  1  0  0  0  0
 20 19  1  0  0  0  0
 22 20  1  0  0  0  0
 23 20  1  0  0  0  0
 24 19  1  0  0  0  0
 24 26  2  0  0  0  0
 25 24  1  0  0  0  0
 26 31  1  0  0  0  0
 27 26  1  0  0  0  0
 27 28  1  0  0  0  0
 29 27  1  0  0  0  0
 30 27  1  0  0  0  0
 31 33  2  0  0  0  0
 31 32  1  0  0  0  0
 33 34  1  0  0  0  0
 34 37  1  0  0  0  0
 34 35  1  0  0  0  0
 34 36  1  0  0  0  0
M  END
