3
 OpenBabel05122313113D

 67 70  0  0  1  0  0  0  0  0999 V2000
    0.0277    0.8981    0.0180 O   0  0  0  0  0  0  0  0  0  0  0  0
    1.5546   -0.6922   -0.0201 N   0  0  0  0  0  0  0  0  0  0  0  0
    0.2359   -0.4137    0.0044 C   0  0  0  0  0  2  0  0  0  0  0  0
   -1.3060    1.5291    0.0139 C   0  0  1  0  0  0  0  0  0  0  0  0
   -0.9963    3.0332    0.0448 C   0  0  0  0  0  0  0  0  0  0  0  0
   -0.3672    3.2953   -0.8314 H   0  0  0  0  0  0  0  0  0  0  0  0
   -0.4040    3.2665    0.9542 H   0  0  0  0  0  0  0  0  0  0  0  0
   -2.3169    3.8285    0.0290 C   0  0  1  0  0  0  0  0  0  0  0  0
   -2.0843    4.9139    0.0502 H   0  0  0  0  0  0  0  0  0  0  0  0
   -3.1032    3.4864   -1.2518 C   0  0  0  0  0  0  0  0  0  0  0  0
   -2.5186    3.7799   -2.1500 H   0  0  0  0  0  0  0  0  0  0  0  0
   -4.0520    4.0634   -1.2803 H   0  0  0  0  0  0  0  0  0  0  0  0
   -3.4009    1.9749   -1.2827 C   0  0  1  0  0  0  0  0  0  0  0  0
   -3.9596    1.7188   -2.2069 H   0  0  0  0  0  0  0  0  0  0  0  0
   -3.4524    1.9366    1.2358 C   0  0  2  0  0  0  0  0  0  0  0  0
   -4.0481    1.6514    2.1278 H   0  0  0  0  0  0  0  0  0  0  0  0
   -3.1563    3.4483    1.2642 C   0  0  0  0  0  0  0  0  0  0  0  0
   -2.6104    3.7140    2.1948 H   0  0  0  0  0  0  0  0  0  0  0  0
   -4.1061    4.0242    1.2703 H   0  0  0  0  0  0  0  0  0  0  0  0
   -2.0732    1.1895   -1.2721 C   0  0  0  0  0  0  0  0  0  0  0  0
   -2.2675    0.0967   -1.3152 H   0  0  0  0  0  0  0  0  0  0  0  0
   -1.4490    1.4539   -2.1518 H   0  0  0  0  0  0  0  0  0  0  0  0
   -2.1244    1.1514    1.2569 C   0  0  0  0  0  0  0  0  0  0  0  0
   -2.3213    0.0583    1.2622 H   0  0  0  0  0  0  0  0  0  0  0  0
   -1.5404    1.3898    2.1704 H   0  0  0  0  0  0  0  0  0  0  0  0
   -4.2323    1.5815   -0.0456 C   0  0  0  0  0  0  0  0  0  0  0  0
   -5.2061    2.1155   -0.0574 H   0  0  0  0  0  0  0  0  0  0  0  0
   -4.4554    0.4939   -0.0665 H   0  0  0  0  0  0  0  0  0  0  0  0
    2.0050   -2.1244   -0.0943 C   0  0  0  0  0  0  0  0  0  0  0  0
    1.2965   -2.6713    0.5645 H   0  0  0  0  0  0  0  0  0  0  0  0
    1.8615   -2.6960   -1.5086 C   0  0  0  0  0  0  0  0  0  0  0  0
    2.0325   -3.7903   -1.4780 H   0  0  0  0  0  0  0  0  0  0  0  0
    2.5991   -2.2559   -2.2074 H   0  0  0  0  0  0  0  0  0  0  0  0
    0.8391   -2.5289   -1.9014 H   0  0  0  0  0  0  0  0  0  0  0  0
    3.4243   -2.3106    0.4364 C   0  0  0  0  0  0  0  0  0  0  0  0
    3.6710   -3.3895    0.3997 H   0  0  0  0  0  0  0  0  0  0  0  0
    3.5345   -1.9746    1.4831 H   0  0  0  0  0  0  0  0  0  0  0  0
    4.1689   -1.7696   -0.1807 H   0  0  0  0  0  0  0  0  0  0  0  0
    2.5388    0.3728    0.0396 C   0  0  0  0  0  0  0  0  0  0  0  0
    3.0040    0.9674   -1.1588 C   0  0  0  0  0  0  0  0  0  0  0  0
    4.0029    1.9555   -1.0608 C   0  0  0  0  0  0  0  0  0  0  0  0
    4.3842    2.4267   -1.9796 H   0  0  0  0  0  0  0  0  0  0  0  0
    4.5069    2.3557    0.1810 C   0  0  0  0  0  0  0  0  0  0  0  0
    5.2905    3.1265    0.2360 H   0  0  0  0  0  0  0  0  0  0  0  0
    3.9973    1.7891    1.3553 C   0  0  0  0  0  0  0  0  0  0  0  0
    4.3752    2.1305    2.3307 H   0  0  0  0  0  0  0  0  0  0  0  0
    3.0010    0.7966    1.3129 C   0  0  0  0  0  0  0  0  0  0  0  0
    2.4207    0.6245   -2.5230 C   0  0  0  0  0  0  0  0  0  0  0  0
    1.6752   -0.1803   -2.3757 H   0  0  0  0  0  0  0  0  0  0  0  0
    1.6702    1.8325   -3.1116 C   0  0  0  0  0  0  0  0  0  0  0  0
    0.8970    2.1961   -2.4074 H   0  0  0  0  0  0  0  0  0  0  0  0
    1.1713    1.5570   -4.0633 H   0  0  0  0  0  0  0  0  0  0  0  0
    2.3598    2.6755   -3.3239 H   0  0  0  0  0  0  0  0  0  0  0  0
    3.4898    0.1033   -3.4966 C   0  0  0  0  0  0  0  0  0  0  0  0
    4.0370   -0.7650   -3.0772 H   0  0  0  0  0  0  0  0  0  0  0  0
    4.2408    0.8853   -3.7319 H   0  0  0  0  0  0  0  0  0  0  0  0
    3.0270   -0.2122   -4.4538 H   0  0  0  0  0  0  0  0  0  0  0  0
    2.3985    0.2755    2.6135 C   0  0  0  0  0  0  0  0  0  0  0  0
    1.7788   -0.6112    2.3687 H   0  0  0  0  0  0  0  0  0  0  0  0
    3.4571   -0.1586    3.6395 C   0  0  0  0  0  0  0  0  0  0  0  0
    4.1595   -0.9068    3.2206 H   0  0  0  0  0  0  0  0  0  0  0  0
    2.9700   -0.6066    4.5290 H   0  0  0  0  0  0  0  0  0  0  0  0
    4.0603    0.7016    3.9954 H   0  0  0  0  0  0  0  0  0  0  0  0
    1.4573    1.3360    3.2163 C   0  0  0  0  0  0  0  0  0  0  0  0
    0.9428    0.9403    4.1158 H   0  0  0  0  0  0  0  0  0  0  0  0
    0.6889    1.6447    2.4828 H   0  0  0  0  0  0  0  0  0  0  0  0
    2.0235    2.2420    3.5167 H   0  0  0  0  0  0  0  0  0  0  0  0
  2  3  1  0  0  0  0
  2 39  1  0  0  0  0
  3  1  1  0  0  0  0
  4  1  1  1  0  0  0
  4  5  1  0  0  0  0
  4 23  1  0  0  0  0
  5  7  1  0  0  0  0
  6  5  1  0  0  0  0
  8  5  1  0  0  0  0
  8  9  1  1  0  0  0
  8 17  1  0  0  0  0
 10  8  1  0  0  0  0
 11 10  1  0  0  0  0
 12 10  1  0  0  0  0
 13 14  1  6  0  0  0
 13 20  1  0  0  0  0
 13 10  1  0  0  0  0
 13 26  1  0  0  0  0
 15 23  1  0  0  0  0
 15 17  1  0  0  0  0
 15 16  1  1  0  0  0
 17 19  1  0  0  0  0
 17 18  1  0  0  0  0
 20  4  1  0  0  0  0
 21 20  1  0  0  0  0
 22 20  1  0  0  0  0
 23 24  1  0  0  0  0
 23 25  1  0  0  0  0
 26 15  1  0  0  0  0
 27 26  1  0  0  0  0
 28 26  1  0  0  0  0
 29  2  1  0  0  0  0
 29 35  1  0  0  0  0
 29 30  1  0  0  0  0
 31 32  1  0  0  0  0
 31 29  1  0  0  0  0
 33 31  1  0  0  0  0
 34 31  1  0  0  0  0
 35 37  1  0  0  0  0
 36 35  1  0  0  0  0
 38 35  1  0  0  0  0
 39 47  1  0  0  0  0
 40 41  1  0  0  0  0
 40 39  2  0  0  0  0
 41 43  2  0  0  0  0
 42 41  1  0  0  0  0
 43 44  1  0  0  0  0
 43 45  1  0  0  0  0
 45 46  1  0  0  0  0
 47 45  2  0  0  0  0
 47 58  1  0  0  0  0
 48 49  1  0  0  0  0
 48 40  1  0  0  0  0
 50 48  1  0  0  0  0
 50 51  1  0  0  0  0
 52 50  1  0  0  0  0
 53 50  1  0  0  0  0
 54 55  1  0  0  0  0
 54 48  1  0  0  0  0
 56 54  1  0  0  0  0
 57 54  1  0  0  0  0
 58 64  1  0  0  0  0
 58 60  1  0  0  0  0
 59 58  1  0  0  0  0
 60 63  1  0  0  0  0
 60 62  1  0  0  0  0
 61 60  1  0  0  0  0
 64 67  1  0  0  0  0
 64 65  1  0  0  0  0
 66 64  1  0  0  0  0
M  END
