6
 OpenBabel05122313113D

 36 38  0  0  1  0  0  0  0  0999 V2000
    1.5386   -0.3450   -0.8493 O   0  0  0  0  0  0  0  0  0  0  0  0
    0.3054    0.3512   -0.7360 C   0  0  2  0  0  0  0  0  0  0  0  0
    0.5387    1.4560    0.2005 N   0  0  0  0  0  0  0  0  0  0  0  0
    1.9866    1.5166    0.4736 C   0  0  2  0  0  0  0  0  0  0  0  0
    2.5616    0.6330   -0.6735 C   0  0  1  0  0  0  0  0  0  0  0  0
   -0.7296   -0.6335   -0.2582 C   0  0  1  0  0  3  0  0  0  0  0  0
   -1.4679   -1.5673   -1.0710 C   0  0  0  0  0  0  0  0  0  0  0  0
   -2.2676   -2.3727   -0.2067 C   0  0  0  0  0  0  0  0  0  0  0  0
   -2.0274   -1.9533    1.1491 C   0  0  0  0  0  0  0  0  0  0  0  0
   -1.0813   -0.8817    1.1081 C   0  0  0  0  0  0  0  0  0  0  0  0
   -0.0975    2.7090   -0.1592 C   0  0  0  0  0  0  0  0  0  0  0  0
    2.3237    1.0250    1.8800 C   0  0  0  0  0  0  0  0  0  0  0  0
    3.8942   -0.0192   -0.4154 C   0  0  0  0  0  0  0  0  0  0  0  0
    5.0758    0.7343   -0.5566 C   0  0  0  0  0  0  0  0  0  0  0  0
    6.3226    0.1654   -0.2612 C   0  0  0  0  0  0  0  0  0  0  0  0
    6.4025   -1.1691    0.1700 C   0  0  0  0  0  0  0  0  0  0  0  0
    5.2291   -1.9278    0.3010 C   0  0  0  0  0  0  0  0  0  0  0  0
    3.9801   -1.3569    0.0124 C   0  0  0  0  0  0  0  0  0  0  0  0
    0.0008    0.7502   -1.7422 H   0  0  0  0  0  0  0  0  0  0  0  0
    2.3434    2.5616    0.3481 H   0  0  0  0  0  0  0  0  0  0  0  0
    2.6336    1.2683   -1.5920 H   0  0  0  0  0  0  0  0  0  0  0  0
   -1.4204   -1.6399   -2.1641 H   0  0  0  0  0  0  0  0  0  0  0  0
   -2.9515   -3.1700   -0.5219 H   0  0  0  0  0  0  0  0  0  0  0  0
   -2.4960   -2.3712    2.0473 H   0  0  0  0  0  0  0  0  0  0  0  0
   -0.6833   -0.3128    1.9562 H   0  0  0  0  0  0  0  0  0  0  0  0
   -0.0130    3.4306    0.6773 H   0  0  0  0  0  0  0  0  0  0  0  0
   -1.1779    2.5451   -0.3362 H   0  0  0  0  0  0  0  0  0  0  0  0
    0.3300    3.1850   -1.0800 H   0  0  0  0  0  0  0  0  0  0  0  0
    1.7493    1.6089    2.6259 H   0  0  0  0  0  0  0  0  0  0  0  0
    3.4047    1.1298    2.1009 H   0  0  0  0  0  0  0  0  0  0  0  0
    2.0525   -0.0433    1.9950 H   0  0  0  0  0  0  0  0  0  0  0  0
    5.0173    1.7787   -0.9039 H   0  0  0  0  0  0  0  0  0  0  0  0
    7.2388    0.7648   -0.3748 H   0  0  0  0  0  0  0  0  0  0  0  0
    7.3811   -1.6185    0.3972 H   0  0  0  0  0  0  0  0  0  0  0  0
    5.2859   -2.9768    0.6300 H   0  0  0  0  0  0  0  0  0  0  0  0
    3.0546   -1.9428    0.1033 H   0  0  0  0  0  0  0  0  0  0  0  0
  1  2  1  0  0  0  0
  1  5  1  0  0  0  0
  2 19  1  6  0  0  0
  2  6  1  0  0  0  0
  2  3  1  0  0  0  0
  3  4  1  0  0  0  0
  4 20  1  6  0  0  0
  4 12  1  0  0  0  0
  5 21  1  6  0  0  0
  5 13  1  0  0  0  0
  5  4  1  0  0  0  0
  6  7  1  1  0  0  0
  6 10  1  0  0  0  0
  7  8  2  0  0  0  0
  8  9  1  0  0  0  0
  9 24  1  0  0  0  0
 10  9  2  0  0  0  0
 10 25  1  0  0  0  0
 11  3  1  0  0  0  0
 11 26  1  0  0  0  0
 12 31  1  0  0  0  0
 12 30  1  0  0  0  0
 12 29  1  0  0  0  0
 13 18  1  0  0  0  0
 14 13  2  0  0  0  0
 14 15  1  0  0  0  0
 15 16  2  0  0  0  0
 16 17  1  0  0  0  0
 16 34  1  0  0  0  0
 17 35  1  0  0  0  0
 18 36  1  0  0  0  0
 18 17  2  0  0  0  0
 22  7  1  0  0  0  0
 23  8  1  0  0  0  0
 27 11  1  0  0  0  0
 28 11  1  0  0  0  0
 32 14  1  0  0  0  0
 33 15  1  0  0  0  0
M  END
