7
 OpenBabel05122313113D

 36 38  0  0  1  0  0  0  0  0999 V2000
    0.9611    0.4759   -1.1681 O   0  0  0  0  0  0  0  0  0  0  0  0
    0.0529    1.5578   -1.0288 C   0  0  2  0  0  0  0  0  0  0  0  0
    0.3823    2.2421    0.2221 N   0  0  0  0  0  0  0  0  0  0  0  0
    1.6693    1.7056    0.6769 C   0  0  2  0  0  0  0  0  0  0  0  0
    1.6129    0.2800    0.0925 C   0  0  2  0  0  0  0  0  0  0  0  0
   -1.3864    1.0860   -1.0618 C   0  0  1  0  0  3  0  0  0  0  0  0
   -2.4678    1.5432   -0.2310 C   0  0  0  0  0  3  0  0  0  0  0  0
   -3.6697    0.8947   -0.6503 C   0  0  0  0  0  3  0  0  0  0  0  0
   -3.3389    0.0197   -1.7460 C   0  0  0  0  0  0  0  0  0  0  0  0
   -1.9378    0.1404   -1.9940 C   0  0  0  0  0  0  0  0  0  0  0  0
    0.2957    3.6867    0.1634 C   0  0  0  0  0  0  0  0  0  0  0  0
    1.8452    1.7602    2.1879 C   0  0  0  0  0  0  0  0  0  0  0  0
    2.9537   -0.3797   -0.0972 C   0  0  0  0  0  0  0  0  0  0  0  0
    3.4717   -1.2189    0.9068 C   0  0  0  0  0  0  0  0  0  0  0  0
    4.7484   -1.7853    0.7723 C   0  0  0  0  0  0  0  0  0  0  0  0
    5.5134   -1.5288   -0.3761 C   0  0  0  0  0  0  0  0  0  0  0  0
    4.9951   -0.7042   -1.3883 C   0  0  0  0  0  0  0  0  0  0  0  0
    3.7235   -0.1303   -1.2491 C   0  0  0  0  0  0  0  0  0  0  0  0
    0.2128    2.2265   -1.9173 H   0  0  0  0  0  0  0  0  0  0  0  0
    2.5223    2.2409    0.1801 H   0  0  0  0  0  0  0  0  0  0  0  0
    0.9808   -0.3499    0.7596 H   0  0  0  0  0  0  0  0  0  0  0  0
   -2.3626    2.2547    0.5958 H   0  0  0  0  0  0  0  0  0  0  0  0
   -4.6641    1.0287   -0.2088 H   0  0  0  0  0  0  0  0  0  0  0  0
   -4.0364   -0.6331   -2.2839 H   0  0  0  0  0  0  0  0  0  0  0  0
   -1.3618   -0.4026   -2.7529 H   0  0  0  0  0  0  0  0  0  0  0  0
    1.0370    4.1451   -0.5437 H   0  0  0  0  0  0  0  0  0  0  0  0
   -0.7179    4.0019   -0.1566 H   0  0  0  0  0  0  0  0  0  0  0  0
    0.4700    4.1189    1.1687 H   0  0  0  0  0  0  0  0  0  0  0  0
    2.8089    1.2959    2.4781 H   0  0  0  0  0  0  0  0  0  0  0  0
    1.8602    2.8064    2.5530 H   0  0  0  0  0  0  0  0  0  0  0  0
    1.0170    1.2261    2.6936 H   0  0  0  0  0  0  0  0  0  0  0  0
    2.8619   -1.4374    1.7978 H   0  0  0  0  0  0  0  0  0  0  0  0
    5.1425   -2.4408    1.5638 H   0  0  0  0  0  0  0  0  0  0  0  0
    6.5115   -1.9795   -0.4870 H   0  0  0  0  0  0  0  0  0  0  0  0
    5.5866   -0.5095   -2.2961 H   0  0  0  0  0  0  0  0  0  0  0  0
    3.3013    0.5062   -2.0404 H   0  0  0  0  0  0  0  0  0  0  0  0
  1  2  1  0  0  0  0
  1  5  1  0  0  0  0
  2 19  1  6  0  0  0
  2  3  1  0  0  0  0
  3  4  1  0  0  0  0
  4 20  1  6  0  0  0
  4 12  1  0  0  0  0
  5  4  1  0  0  0  0
  5 21  1  1  0  0  0
  6 10  1  6  0  0  0
  6  2  1  0  0  0  0
  6  7  1  0  0  0  0
  7 22  1  0  0  0  0
  8  7  1  0  0  0  0
  8 23  1  0  0  0  0
  9  8  1  0  0  0  0
 10  9  2  0  0  0  0
 11  3  1  0  0  0  0
 11 28  1  0  0  0  0
 12 29  1  0  0  0  0
 12 30  1  0  0  0  0
 12 31  1  0  0  0  0
 13  5  1  0  0  0  0
 13 14  1  0  0  0  0
 14 32  1  0  0  0  0
 15 14  2  0  0  0  0
 15 33  1  0  0  0  0
 16 15  1  0  0  0  0
 17 18  1  0  0  0  0
 17 16  2  0  0  0  0
 18 13  2  0  0  0  0
 24  9  1  0  0  0  0
 25 10  1  0  0  0  0
 26 11  1  0  0  0  0
 27 11  1  0  0  0  0
 34 16  1  0  0  0  0
 35 17  1  0  0  0  0
 36 18  1  0  0  0  0
M  END
