2
 OpenBabel05122313113D

 24 25  0  0  0  0  0  0  0  0999 V2000
    0.9216    2.2259   -0.3836 O   0  0  0  0  0  0  0  0  0  0  0  0
   -1.4873    1.1744   -0.0172 C   0  0  0  0  0  2  0  0  0  0  0  0
   -2.5165    0.7955    0.1133 H   0  0  0  0  0  0  0  0  0  0  0  0
   -1.3500    2.6203   -0.0595 C   0  0  0  0  0  0  0  0  0  0  0  0
   -2.4452    3.5093    0.0553 C   0  0  0  0  0  0  0  0  0  0  0  0
   -3.4532    3.0834    0.1801 H   0  0  0  0  0  0  0  0  0  0  0  0
   -2.2482    4.8946    0.0142 C   0  0  0  0  0  0  0  0  0  0  0  0
   -3.1054    5.5774    0.1087 H   0  0  0  0  0  0  0  0  0  0  0  0
   -0.9514    5.4145   -0.1527 C   0  0  0  0  0  0  0  0  0  0  0  0
   -0.7972    6.5033   -0.1953 H   0  0  0  0  0  0  0  0  0  0  0  0
    0.1602    4.5618   -0.2757 C   0  0  0  0  0  0  0  0  0  0  0  0
    1.1719    4.9649   -0.4197 H   0  0  0  0  0  0  0  0  0  0  0  0
   -0.0549    3.1825   -0.2215 C   0  0  0  0  0  0  0  0  0  0  0  0
    2.2862    2.4329   -0.1859 C   0  0  0  0  0  0  0  0  0  0  0  0
    3.1411    1.8152   -1.1089 C   0  0  0  0  0  0  0  0  0  0  0  0
    2.6971    1.2568   -1.9462 H   0  0  0  0  0  0  0  0  0  0  0  0
    4.5255    1.9019   -0.9053 C   0  0  0  0  0  0  0  0  0  0  0  0
    5.2075    1.4148   -1.6186 H   0  0  0  0  0  0  0  0  0  0  0  0
    5.0393    2.6018    0.1993 C   0  0  0  0  0  0  0  0  0  0  0  0
    6.1267    2.6708    0.3526 H   0  0  0  0  0  0  0  0  0  0  0  0
    4.1611    3.2058    1.1147 C   0  0  0  0  0  0  0  0  0  0  0  0
    4.5585    3.7360    1.9932 H   0  0  0  0  0  0  0  0  0  0  0  0
    2.7725    3.1184    0.9355 C   0  0  0  0  0  0  0  0  0  0  0  0
    2.0724    3.5455    1.6661 H   0  0  0  0  0  0  0  0  0  0  0  0
  1 13  1  0  0  0  0
  1 14  1  0  0  0  0
  2  3  1  0  0  0  0
  4  2  1  0  0  0  0
  4  5  1  0  0  0  0
  5  6  1  0  0  0  0
  7  5  2  0  0  0  0
  7  8  1  0  0  0  0
  9  7  1  0  0  0  0
 10  9  1  0  0  0  0
 11 13  1  0  0  0  0
 11  9  2  0  0  0  0
 12 11  1  0  0  0  0
 13  4  2  0  0  0  0
 14 23  1  0  0  0  0
 15 17  1  0  0  0  0
 15 14  2  0  0  0  0
 16 15  1  0  0  0  0
 17 19  2  0  0  0  0
 18 17  1  0  0  0  0
 19 20  1  0  0  0  0
 19 21  1  0  0  0  0
 21 22  1  0  0  0  0
 23 21  2  0  0  0  0
 23 24  1  0  0  0  0
M  END
