2
 OpenBabel05122313113D

 25 28  0  0  0  0  0  0  0  0999 V2000
    1.4220    1.3569   -1.5953 C   0  0  0  0  0  3  0  0  0  0  0  0
    1.9703    0.1080   -2.0013 C   0  0  0  0  0  3  0  0  0  0  0  0
    1.2814   -1.1493   -1.8211 C   0  0  0  0  0  0  0  0  0  0  0  0
   -0.0083   -1.1267   -1.2478 C   0  0  0  0  0  0  0  0  0  0  0  0
   -1.0673   -2.1802   -0.9002 C   0  0  0  0  0  0  0  0  0  0  0  0
   -2.2204   -1.3476   -0.3257 C   0  0  0  0  0  0  0  0  0  0  0  0
   -3.4721   -1.6414    0.2157 C   0  0  0  0  0  0  0  0  0  0  0  0
   -4.2816   -0.5628    0.6751 C   0  0  0  0  0  0  0  0  0  0  0  0
   -3.8796    0.7805    0.6192 C   0  0  0  0  0  0  0  0  0  0  0  0
   -2.6070    1.1105    0.0798 C   0  0  0  0  0  0  0  0  0  0  0  0
   -1.9638    2.4037   -0.0572 C   0  0  0  0  0  0  0  0  0  0  0  0
   -0.6893    2.5482   -0.5814 C   0  0  0  0  0  0  0  0  0  0  0  0
    0.0826    1.4119   -1.0545 C   0  0  0  0  0  0  0  0  0  0  0  0
   -1.8524    0.0111   -0.3692 C   0  0  0  0  0  0  0  0  0  0  0  0
   -0.5601    0.1564   -0.9309 C   0  0  0  0  0  0  0  0  0  0  0  0
    2.0217    2.2718   -1.6983 H   0  0  0  0  0  0  0  0  0  0  0  0
    2.9940    0.0895   -2.4006 H   0  0  0  0  0  0  0  0  0  0  0  0
    1.7853   -2.0880   -2.0893 H   0  0  0  0  0  0  0  0  0  0  0  0
   -0.6906   -2.9275   -0.1718 H   0  0  0  0  0  0  0  0  0  0  0  0
   -1.3779   -2.7436   -1.8069 H   0  0  0  0  0  0  0  0  0  0  0  0
   -3.8431   -2.6740    0.3017 H   0  0  0  0  0  0  0  0  0  0  0  0
   -5.2686   -0.7987    1.1017 H   0  0  0  0  0  0  0  0  0  0  0  0
   -4.5464    1.5693    1.0000 H   0  0  0  0  0  0  0  0  0  0  0  0
   -2.5035    3.3013    0.2828 H   0  0  0  0  0  0  0  0  0  0  0  0
   -0.2415    3.5512   -0.6489 H   0  0  0  0  0  0  0  0  0  0  0  0
  1 13  1  0  0  0  0
  2  3  1  0  0  0  0
  2  1  1  0  0  0  0
  3  4  2  0  0  0  0
  4 15  1  0  0  0  0
  4  5  1  0  0  0  0
  5  6  1  0  0  0  0
  5 19  1  0  0  0  0
  6  7  1  0  0  0  0
  7 21  1  0  0  0  0
  7  8  2  0  0  0  0
  8 22  1  0  0  0  0
  9  8  1  0  0  0  0
  9 23  1  0  0  0  0
 10  9  2  0  0  0  0
 11 10  1  0  0  0  0
 11 24  1  0  0  0  0
 12 11  2  0  0  0  0
 13 15  2  0  0  0  0
 13 12  1  0  0  0  0
 14  6  2  0  0  0  0
 14 10  1  0  0  0  0
 15 14  1  0  0  0  0
 16  1  1  0  0  0  0
 17  2  1  0  0  0  0
 18  3  1  0  0  0  0
 20  5  1  0  0  0  0
 25 12  1  0  0  0  0
M  END
