1
 OpenBabel05122313113D

 22 23  0  0  1  0  0  0  0  0999 V2000
   -0.8965    0.8512    0.1770 C   0  0  0  0  0  2  0  0  0  0  0  0
    0.2952    1.6205    0.0915 C   0  0  0  0  0  3  0  0  0  0  0  0
    0.2814    2.9745    0.2263 C   0  0  0  0  0  0  0  0  0  0  0  0
   -1.0501    3.6412    0.5257 C   0  0  0  0  0  0  0  0  0  0  0  0
   -2.2491    2.8880   -0.0768 C   0  0  0  0  0  0  0  0  0  0  0  0
   -2.1630    1.3710    0.1047 C   0  0  1  0  0  3  0  0  0  0  0  0
   -3.3803    0.5497    0.0425 C   0  0  0  0  0  0  0  0  0  0  0  0
   -4.6510    1.0966   -0.2755 C   0  0  0  0  0  0  0  0  0  0  0  0
   -5.7949    0.2895   -0.3525 C   0  0  0  0  0  0  0  0  0  0  0  0
   -5.7133   -1.0902   -0.1088 C   0  0  0  0  0  0  0  0  0  0  0  0
   -4.4641   -1.6539    0.2110 C   0  0  0  0  0  0  0  0  0  0  0  0
   -3.3229   -0.8508    0.2823 C   0  0  0  0  0  0  0  0  0  0  0  0
    1.1868    3.6142    0.2173 H   0  0  0  0  0  0  0  0  0  0  0  0
   -1.1705    3.6840    1.6377 H   0  0  0  0  0  0  0  0  0  0  0  0
   -1.0586    4.6984    0.1864 H   0  0  0  0  0  0  0  0  0  0  0  0
   -3.1829    3.2935    0.3634 H   0  0  0  0  0  0  0  0  0  0  0  0
   -2.3140    3.1036   -1.1723 H   0  0  0  0  0  0  0  0  0  0  0  0
   -4.7460    2.1738   -0.4742 H   0  0  0  0  0  0  0  0  0  0  0  0
   -6.7643    0.7463   -0.6063 H   0  0  0  0  0  0  0  0  0  0  0  0
   -6.6130   -1.7215   -0.1652 H   0  0  0  0  0  0  0  0  0  0  0  0
   -4.3836   -2.7346    0.4091 H   0  0  0  0  0  0  0  0  0  0  0  0
   -2.3467   -1.2902    0.5307 H   0  0  0  0  0  0  0  0  0  0  0  0
  2  1  1  0  0  0  0
  2  3  2  0  0  0  0
  3  4  1  0  0  0  0
  4 14  1  0  0  0  0
  5  6  1  0  0  0  0
  5 16  1  0  0  0  0
  5  4  1  0  0  0  0
  6  7  1  6  0  0  0
  6  1  1  0  0  0  0
  7 12  1  0  0  0  0
  8  7  2  0  0  0  0
  9  8  1  0  0  0  0
  9 10  2  0  0  0  0
 10 11  1  0  0  0  0
 11 12  2  0  0  0  0
 11 21  1  0  0  0  0
 12 22  1  0  0  0  0
 13  3  1  0  0  0  0
 15  4  1  0  0  0  0
 17  5  1  0  0  0  0
 18  8  1  0  0  0  0
 19  9  1  0  0  0  0
 20 10  1  0  0  0  0
M  END
