4
 OpenBabel05122313113D

 63 69  0  0  1  0  0  0  0  0999 V2000
   -0.6911    1.3908   -0.0183 N   0  0  0  0  0  0  0  0  0  0  0  0
    1.4540    1.3882   -0.0505 N   0  0  0  0  0  0  0  0  0  0  0  0
    1.1343    2.7052   -0.0881 N   0  0  0  0  0  0  0  0  0  0  0  0
    0.4026    0.5317   -0.0303 C   0  0  0  0  0  2  0  0  0  0  0  0
   -0.1974    2.7201   -0.0814 C   0  0  0  0  0  0  0  0  0  0  0  0
   -1.0845    3.8068   -0.1313 C   0  0  0  0  0  0  0  0  0  0  0  0
   -0.6728    4.8223   -0.1989 H   0  0  0  0  0  0  0  0  0  0  0  0
   -2.4602    3.5638   -0.0850 C   0  0  0  0  0  0  0  0  0  0  0  0
   -3.4224    4.6302   -0.1292 C   0  0  0  0  0  0  0  0  0  0  0  0
   -3.0523    5.6612   -0.2355 H   0  0  0  0  0  0  0  0  0  0  0  0
   -4.7712    4.3700   -0.0354 C   0  0  0  0  0  0  0  0  0  0  0  0
   -5.4955    5.1976   -0.0707 H   0  0  0  0  0  0  0  0  0  0  0  0
   -5.2436    3.0254    0.1191 C   0  0  0  0  0  0  0  0  0  0  0  0
   -6.3241    2.8382    0.2070 H   0  0  0  0  0  0  0  0  0  0  0  0
   -4.3600    1.9703    0.1618 C   0  0  0  0  0  0  0  0  0  0  0  0
   -4.7189    0.9390    0.2872 H   0  0  0  0  0  0  0  0  0  0  0  0
   -2.9417    2.1899    0.0425 C   0  0  0  0  0  0  0  0  0  0  0  0
   -2.0443    1.1068    0.0696 C   0  0  0  0  0  0  0  0  0  0  0  0
   -2.4900   -0.2913    0.3046 C   0  0  0  0  0  0  0  0  0  0  0  0
   -3.0781   -1.0545   -0.7403 C   0  0  0  0  0  0  0  0  0  0  0  0
   -3.4878   -2.3669   -0.4486 C   0  0  0  0  0  0  0  0  0  0  0  0
   -3.9160   -2.9750   -1.2615 H   0  0  0  0  0  0  0  0  0  0  0  0
   -3.3565   -2.9279    0.8351 C   0  0  0  0  0  0  0  0  0  0  0  0
   -2.8392   -2.1209    1.8642 C   0  0  0  0  0  0  0  0  0  0  0  0
   -2.7547   -2.5301    2.8835 H   0  0  0  0  0  0  0  0  0  0  0  0
   -2.4068   -0.8062    1.6257 C   0  0  0  0  0  0  0  0  0  0  0  0
   -3.2243   -0.4949   -2.1285 C   0  0  0  0  0  0  0  0  0  0  0  0
   -3.7457    0.4834   -2.1296 H   0  0  0  0  0  0  0  0  0  0  0  0
   -3.7895   -1.1894   -2.7783 H   0  0  0  0  0  0  0  0  0  0  0  0
   -2.2196   -0.3441   -2.5813 H   0  0  0  0  0  0  0  0  0  0  0  0
   -3.7392   -4.3640    1.0856 C   0  0  0  0  0  0  0  0  0  0  0  0
   -4.6906   -4.6280    0.5813 H   0  0  0  0  0  0  0  0  0  0  0  0
   -3.8451   -4.5802    2.1662 H   0  0  0  0  0  0  0  0  0  0  0  0
   -2.9614   -5.0476    0.6822 H   0  0  0  0  0  0  0  0  0  0  0  0
   -1.8451    0.0348    2.7434 C   0  0  0  0  0  0  0  0  0  0  0  0
   -1.9235   -0.4862    3.7158 H   0  0  0  0  0  0  0  0  0  0  0  0
   -2.3720    1.0077    2.8253 H   0  0  0  0  0  0  0  0  0  0  0  0
   -0.7713    0.2648    2.5760 H   0  0  0  0  0  0  0  0  0  0  0  0
    2.8977    1.0182    0.0686 C   0  0  2  0  0  0  0  0  0  0  0  0
    3.2553   -0.1212   -0.9045 C   0  0  0  0  0  0  0  0  0  0  0  0
    3.0276    0.1892   -1.9445 H   0  0  0  0  0  0  0  0  0  0  0  0
    2.6068   -1.0052   -0.6975 H   0  0  0  0  0  0  0  0  0  0  0  0
    3.1626    0.5673    1.5247 C   0  0  0  0  0  0  0  0  0  0  0  0
    2.8891    1.3940    2.2148 H   0  0  0  0  0  0  0  0  0  0  0  0
    2.5146   -0.2985    1.7664 H   0  0  0  0  0  0  0  0  0  0  0  0
    3.7762    2.2458   -0.2460 C   0  0  0  0  0  0  0  0  0  0  0  0
    3.5661    2.5944   -1.2777 H   0  0  0  0  0  0  0  0  0  0  0  0
    3.5121    3.0796    0.4327 H   0  0  0  0  0  0  0  0  0  0  0  0
    4.7377   -0.4970   -0.7362 C   0  0  2  0  0  0  0  0  0  0  0  0
    4.9713   -1.3247   -1.4379 H   0  0  0  0  0  0  0  0  0  0  0  0
    5.2620    1.8673   -0.0853 C   0  0  1  0  0  0  0  0  0  0  0  0
    5.8782    2.7620   -0.3147 H   0  0  0  0  0  0  0  0  0  0  0  0
    4.9878   -0.9576    0.7131 C   0  0  0  0  0  0  0  0  0  0  0  0
    6.0490   -1.2600    0.8410 H   0  0  0  0  0  0  0  0  0  0  0  0
    4.3654   -1.8490    0.9415 H   0  0  0  0  0  0  0  0  0  0  0  0
    4.6471    0.1898    1.6840 C   0  0  1  0  0  0  0  0  0  0  0  0
    4.8220   -0.1377    2.7306 H   0  0  0  0  0  0  0  0  0  0  0  0
    5.5234    1.4157    1.3646 C   0  0  0  0  0  0  0  0  0  0  0  0
    5.2954    2.2433    2.0704 H   0  0  0  0  0  0  0  0  0  0  0  0
    6.5967    1.1625    1.4979 H   0  0  0  0  0  0  0  0  0  0  0  0
    5.6189    0.7247   -1.0535 C   0  0  0  0  0  0  0  0  0  0  0  0
    6.6939    0.4613   -0.9550 H   0  0  0  0  0  0  0  0  0  0  0  0
    5.4580    1.0481   -2.1039 H   0  0  0  0  0  0  0  0  0  0  0  0
  1 18  1  0  0  0  0
  2  4  1  0  0  0  0
  3  5  2  0  0  0  0
  3  2  1  0  0  0  0
  4  1  1  0  0  0  0
  5  1  1  0  0  0  0
  6  8  2  0  0  0  0
  6  5  1  0  0  0  0
  7  6  1  0  0  0  0
  8 17  1  0  0  0  0
  9  8  1  0  0  0  0
  9 11  2  0  0  0  0
 10  9  1  0  0  0  0
 11 13  1  0  0  0  0
 12 11  1  0  0  0  0
 13 15  2  0  0  0  0
 13 14  1  0  0  0  0
 15 16  1  0  0  0  0
 17 18  2  0  0  0  0
 17 15  1  0  0  0  0
 18 19  1  0  0  0  0
 19 26  1  0  0  0  0
 20 21  1  0  0  0  0
 20 19  2  0  0  0  0
 21 23  2  0  0  0  0
 22 21  1  0  0  0  0
 23 31  1  0  0  0  0
 23 24  1  0  0  0  0
 24 25  1  0  0  0  0
 26 24  2  0  0  0  0
 26 35  1  0  0  0  0
 27 20  1  0  0  0  0
 28 27  1  0  0  0  0
 29 27  1  0  0  0  0
 30 27  1  0  0  0  0
 31 33  1  0  0  0  0
 32 31  1  0  0  0  0
 34 31  1  0  0  0  0
 35 37  1  0  0  0  0
 35 36  1  0  0  0  0
 38 35  1  0  0  0  0
 39  2  1  6  0  0  0
 39 43  1  0  0  0  0
 40 49  1  0  0  0  0
 40 42  1  0  0  0  0
 40 39  1  0  0  0  0
 41 40  1  0  0  0  0
 43 56  1  0  0  0  0
 43 45  1  0  0  0  0
 43 44  1  0  0  0  0
 46 51  1  0  0  0  0
 46 39  1  0  0  0  0
 46 48  1  0  0  0  0
 47 46  1  0  0  0  0
 49 50  1  6  0  0  0
 49 53  1  0  0  0  0
 51 52  1  6  0  0  0
 51 58  1  0  0  0  0
 53 54  1  0  0  0  0
 53 55  1  0  0  0  0
 53 56  1  0  0  0  0
 56 57  1  1  0  0  0
 58 60  1  0  0  0  0
 58 56  1  0  0  0  0
 58 59  1  0  0  0  0
 61 62  1  0  0  0  0
 61 49  1  0  0  0  0
 61 51  1  0  0  0  0
 63 61  1  0  0  0  0
M  END
