1
 OpenBabel05122313113D

 14 14  0  0  0  0  0  0  0  0999 V2000
   -0.5652    0.9063    0.2250 C   0  0  0  0  0  2  0  0  0  0  0  0
   -0.5750    2.2238    0.4510 O   0  0  0  0  0  0  0  0  0  0  0  0
   -1.9588    0.4204    0.1342 C   0  0  0  0  0  0  0  0  0  0  0  0
   -2.2735   -0.9570    0.2277 C   0  0  0  0  0  0  0  0  0  0  0  0
   -3.5980   -1.3982    0.1417 C   0  0  0  0  0  0  0  0  0  0  0  0
   -4.6378   -0.4752   -0.0561 C   0  0  0  0  0  0  0  0  0  0  0  0
   -4.3460    0.8963   -0.1543 C   0  0  0  0  0  0  0  0  0  0  0  0
   -3.0255    1.3414   -0.0507 C   0  0  0  0  0  0  0  0  0  0  0  0
    0.3581    2.5202    0.4738 H   0  0  0  0  0  0  0  0  0  0  0  0
   -1.4725   -1.6882    0.3894 H   0  0  0  0  0  0  0  0  0  0  0  0
   -3.8202   -2.4721    0.2273 H   0  0  0  0  0  0  0  0  0  0  0  0
   -5.6784   -0.8251   -0.1344 H   0  0  0  0  0  0  0  0  0  0  0  0
   -5.1573    1.6229   -0.3122 H   0  0  0  0  0  0  0  0  0  0  0  0
   -2.7959    2.4127   -0.1260 H   0  0  0  0  0  0  0  0  0  0  0  0
  1  2  1  0  0  0  0
  2  9  1  0  0  0  0
  3  1  1  0  0  0  0
  3  4  1  0  0  0  0
  4 10  1  0  0  0  0
  5 11  1  0  0  0  0
  5  4  2  0  0  0  0
  6  5  1  0  0  0  0
  7  6  2  0  0  0  0
  7  8  1  0  0  0  0
  8  3  2  0  0  0  0
 12  6  1  0  0  0  0
 13  7  1  0  0  0  0
 14  8  1  0  0  0  0
M  END
