6
 OpenBabel05122313113D

 56 58  0  0  1  0  0  0  0  0999 V2000
   -2.6995   -0.2514   -0.2759 C   0  0  0  0  0  0  0  0  0  0  0  0
   -1.4463    0.1667    0.1123 C   0  0  0  0  0  0  0  0  0  0  0  0
   -0.5496   -1.0014    0.1905 C   0  0  2  0  0  3  0  0  0  0  0  0
   -1.3586   -2.1207   -0.0619 O   0  0  0  0  0  0  0  0  0  0  0  0
    0.5600   -1.1962    1.1279 C   0  0  1  0  0  3  0  0  0  0  0  0
    1.6342   -0.2650    1.0001 C   0  0  0  0  0  3  0  0  0  0  0  0
    1.6970    0.7292   -0.0269 C   0  0  0  0  0  3  0  0  0  0  0  0
    4.1950    1.1993    0.1768 C   0  0  0  0  0  0  0  0  0  0  0  0
    5.2939    2.0230   -0.0990 C   0  0  0  0  0  0  0  0  0  0  0  0
    5.1338    3.1890   -0.8657 C   0  0  0  0  0  0  0  0  0  0  0  0
    3.8612    3.5269   -1.3539 C   0  0  0  0  0  0  0  0  0  0  0  0
    2.7612    2.7066   -1.0747 C   0  0  0  0  0  0  0  0  0  0  0  0
    2.9069    1.5285   -0.3037 C   0  0  0  0  0  0  0  0  0  0  0  0
   -2.6374   -1.7243   -0.4435 C   0  0  0  0  0  0  0  0  0  0  0  0
   -3.4658   -2.5272   -0.8111 O   0  0  0  0  0  0  0  0  0  0  0  0
   -4.2335    1.6294    0.3846 C   0  0  0  0  0  0  0  0  0  0  0  0
   -5.4220    2.3484    0.2158 C   0  0  0  0  0  0  0  0  0  0  0  0
   -6.3511    1.9574   -0.7625 C   0  0  0  0  0  0  0  0  0  0  0  0
   -6.0883    0.8320   -1.5592 C   0  0  0  0  0  0  0  0  0  0  0  0
   -4.9025    0.1057   -1.3915 C   0  0  0  0  0  0  0  0  0  0  0  0
   -3.9467    0.5073   -0.4278 C   0  0  0  0  0  0  0  0  0  0  0  0
   -1.1343    1.5832    0.4840 C   0  0  0  0  0  0  0  0  0  0  0  0
   -1.1215    2.5196   -0.2951 O   0  0  0  0  0  0  0  0  0  0  0  0
   -0.9203    1.6827    1.8179 O   0  0  0  0  0  0  0  0  0  0  0  0
   -0.6243    3.0064    2.3379 C   0  0  0  0  0  0  0  0  0  0  0  0
    0.8702    3.2746    2.3534 C   0  0  0  0  0  0  0  0  0  0  0  0
    0.4854   -2.2014    2.2971 C   0  0  0  0  0  0  0  0  0  0  0  0
    1.7003   -2.0545    3.2317 C   0  0  0  0  0  0  0  0  0  0  0  0
   -0.7943   -1.8351    3.0877 C   0  0  0  0  0  0  0  0  0  0  0  0
    0.4164   -3.6710    1.8370 C   0  0  0  0  0  0  0  0  0  0  0  0
    2.5179   -0.4186    1.6341 H   0  0  0  0  0  0  0  0  0  0  0  0
    0.7925    1.2459   -0.3541 H   0  0  0  0  0  0  0  0  0  0  0  0
    4.3497    0.2829    0.7655 H   0  0  0  0  0  0  0  0  0  0  0  0
    6.2884    1.7479    0.2838 H   0  0  0  0  0  0  0  0  0  0  0  0
    6.0005    3.8306   -1.0848 H   0  0  0  0  0  0  0  0  0  0  0  0
    3.7241    4.4373   -1.9568 H   0  0  0  0  0  0  0  0  0  0  0  0
    1.7615    2.9736   -1.4535 H   0  0  0  0  0  0  0  0  0  0  0  0
   -3.5351    1.9179    1.1830 H   0  0  0  0  0  0  0  0  0  0  0  0
   -5.6301    3.2160    0.8602 H   0  0  0  0  0  0  0  0  0  0  0  0
   -7.2851    2.5242   -0.8952 H   0  0  0  0  0  0  0  0  0  0  0  0
   -6.8166    0.5127   -2.3199 H   0  0  0  0  0  0  0  0  0  0  0  0
   -4.7046   -0.7847   -2.0030 H   0  0  0  0  0  0  0  0  0  0  0  0
   -1.0496    2.9996    3.3602 H   0  0  0  0  0  0  0  0  0  0  0  0
   -1.1616    3.7537    1.7205 H   0  0  0  0  0  0  0  0  0  0  0  0
    1.0683    4.2449    2.8515 H   0  0  0  0  0  0  0  0  0  0  0  0
    1.4128    2.4841    2.9089 H   0  0  0  0  0  0  0  0  0  0  0  0
    1.2842    3.3273    1.3284 H   0  0  0  0  0  0  0  0  0  0  0  0
    1.6020   -2.7685    4.0733 H   0  0  0  0  0  0  0  0  0  0  0  0
    2.6514   -2.2896    2.7119 H   0  0  0  0  0  0  0  0  0  0  0  0
    1.7753   -1.0366    3.6645 H   0  0  0  0  0  0  0  0  0  0  0  0
   -0.8636   -2.4530    4.0057 H   0  0  0  0  0  0  0  0  0  0  0  0
   -0.7893   -0.7663    3.3814 H   0  0  0  0  0  0  0  0  0  0  0  0
   -1.7048   -2.0205    2.4857 H   0  0  0  0  0  0  0  0  0  0  0  0
    0.3039   -4.3292    2.7225 H   0  0  0  0  0  0  0  0  0  0  0  0
   -0.4351   -3.8546    1.1590 H   0  0  0  0  0  0  0  0  0  0  0  0
    1.3495   -3.9612    1.3148 H   0  0  0  0  0  0  0  0  0  0  0  0
  1  2  2  0  0  0  0
  2  3  1  0  0  0  0
  2 22  1  0  0  0  0
  3  5  1  1  0  0  0
  4  3  1  0  0  0  0
  5  6  1  1  0  0  0
  5 27  1  0  0  0  0
  6 31  1  0  0  0  0
  7  6  1  0  0  0  0
  8 33  1  0  0  0  0
  9  8  1  0  0  0  0
  9 34  1  0  0  0  0
 10  9  2  0  0  0  0
 11 12  2  0  0  0  0
 11 10  1  0  0  0  0
 12 13  1  0  0  0  0
 13  7  1  0  0  0  0
 13  8  2  0  0  0  0
 14  1  1  0  0  0  0
 14  4  1  0  0  0  0
 15 14  2  0  0  0  0
 16 38  1  0  0  0  0
 17 16  1  0  0  0  0
 17 39  1  0  0  0  0
 18 17  2  0  0  0  0
 19 20  2  0  0  0  0
 19 18  1  0  0  0  0
 20 21  1  0  0  0  0
 21  1  1  0  0  0  0
 21 16  2  0  0  0  0
 22 24  1  0  0  0  0
 23 22  2  0  0  0  0
 24 25  1  0  0  0  0
 25 26  1  0  0  0  0
 25 43  1  0  0  0  0
 26 45  1  0  0  0  0
 26 46  1  0  0  0  0
 27 29  1  0  0  0  0
 27 28  1  0  0  0  0
 28 50  1  0  0  0  0
 28 48  1  0  0  0  0
 29 52  1  0  0  0  0
 29 51  1  0  0  0  0
 30 27  1  0  0  0  0
 30 54  1  0  0  0  0
 32  7  1  0  0  0  0
 35 10  1  0  0  0  0
 36 11  1  0  0  0  0
 37 12  1  0  0  0  0
 40 18  1  0  0  0  0
 41 19  1  0  0  0  0
 42 20  1  0  0  0  0
 44 25  1  0  0  0  0
 47 26  1  0  0  0  0
 49 28  1  0  0  0  0
 53 29  1  0  0  0  0
 55 30  1  0  0  0  0
 56 30  1  0  0  0  0
M  END
