4
 OpenBabel05122313113D

 27 29  0  0  1  0  0  0  0  0999 V2000
   -0.9267    1.8056   -1.1682 As  0  0  0  0  0  0  0  0  0  0  0  0
   -2.4442    0.0150   -1.5485 As  0  0  0  0  0  0  0  0  0  0  0  0
   -0.9628   -1.8098   -1.1547 As  0  0  0  0  0  0  0  0  0  0  0  0
    0.5626   -0.7238   -0.6124 C   0  0  2  0  0  3  0  0  0  0  0  0
    0.5869    0.6965   -0.6283 C   0  0  0  0  0  0  0  0  0  0  0  0
    1.7722   -1.5044   -0.2024 C   0  0  0  0  0  0  0  0  0  0  0  0
    2.4632   -1.2308    1.0000 C   0  0  0  0  0  0  0  0  0  0  0  0
    2.0682   -0.4504    1.6661 H   0  0  0  0  0  0  0  0  0  0  0  0
    3.6166   -1.9451    1.3448 C   0  0  0  0  0  0  0  0  0  0  0  0
    4.1328   -1.7151    2.2899 H   0  0  0  0  0  0  0  0  0  0  0  0
    4.1072   -2.9571    0.5018 C   0  0  0  0  0  0  0  0  0  0  0  0
    5.0110   -3.5224    0.7787 H   0  0  0  0  0  0  0  0  0  0  0  0
    3.4277   -3.2463   -0.6914 C   0  0  0  0  0  0  0  0  0  0  0  0
    3.7974   -4.0393   -1.3609 H   0  0  0  0  0  0  0  0  0  0  0  0
    2.2736   -2.5271   -1.0382 C   0  0  0  0  0  0  0  0  0  0  0  0
    1.7444   -2.7478   -1.9786 H   0  0  0  0  0  0  0  0  0  0  0  0
    1.8421    1.4751   -0.4141 C   0  0  0  0  0  0  0  0  0  0  0  0
    1.9220    2.5496    0.5006 C   0  0  0  0  0  0  0  0  0  0  0  0
    1.0526    2.7803    1.1312 H   0  0  0  0  0  0  0  0  0  0  0  0
    3.1022    3.2963    0.6307 C   0  0  0  0  0  0  0  0  0  0  0  0
    3.1401    4.1218    1.3589 H   0  0  0  0  0  0  0  0  0  0  0  0
    4.2305    2.9900   -0.1471 C   0  0  0  0  0  0  0  0  0  0  0  0
    5.1582    3.5735   -0.0379 H   0  0  0  0  0  0  0  0  0  0  0  0
    4.1627    1.9286   -1.0646 C   0  0  0  0  0  0  0  0  0  0  0  0
    5.0384    1.6756   -1.6834 H   0  0  0  0  0  0  0  0  0  0  0  0
    2.9836    1.1844   -1.1993 C   0  0  0  0  0  0  0  0  0  0  0  0
    2.9343    0.3564   -1.9215 H   0  0  0  0  0  0  0  0  0  0  0  0
  1  5  2  0  0  0  0
  2  1  1  0  0  0  0
  2  3  2  3  0  0  0
  3  4  1  0  0  0  0
  4  6  1  6  0  0  0
  5  4  1  0  0  0  0
  5 17  1  0  0  0  0
  6  7  1  0  0  0  0
  7  9  2  0  0  0  0
  7  8  1  0  0  0  0
  9 10  1  0  0  0  0
 11 12  1  0  0  0  0
 11  9  1  0  0  0  0
 13 11  2  0  0  0  0
 14 13  1  0  0  0  0
 15 13  1  0  0  0  0
 15  6  2  0  0  0  0
 16 15  1  0  0  0  0
 17 18  1  0  0  0  0
 18 20  2  0  0  0  0
 18 19  1  0  0  0  0
 20 21  1  0  0  0  0
 22 23  1  0  0  0  0
 22 20  1  0  0  0  0
 24 22  2  0  0  0  0
 25 24  1  0  0  0  0
 26 24  1  0  0  0  0
 26 17  2  0  0  0  0
 27 26  1  0  0  0  0
M  END
