12
 OpenBabel05122313113D

 51 53  0  0  1  0  0  0  0  0999 V2000
   -0.2786    0.3826    0.2521 N   0  0  0  0  0  0  0  0  0  0  0  0
   -2.1094   -0.3786   -1.7257 O   0  0  0  0  0  0  0  0  0  0  0  0
   -1.4937   -0.3572    0.6357 C   0  0  2  0  0  0  0  0  0  0  0  0
   -2.6491   -0.2037   -0.4247 C   0  0  0  0  0  0  0  0  0  0  0  0
   -4.3179    1.5431    0.4650 C   0  0  0  0  0  0  0  0  0  0  0  0
   -3.8296   -2.1311    0.8964 C   0  0  0  0  0  0  0  0  0  0  0  0
   -3.7520   -1.2566   -0.2028 C   0  0  0  0  0  0  0  0  0  0  0  0
   -2.6095    2.2351   -1.1125 C   0  0  0  0  0  0  0  0  0  0  0  0
   -4.1049    3.8911   -0.1395 C   0  0  0  0  0  0  0  0  0  0  0  0
    4.1445    0.4665   -1.8199 C   0  0  0  0  0  3  0  0  0  0  0  0
   -4.8703   -3.0729    0.9944 C   0  0  0  0  0  0  0  0  0  0  0  0
    2.8049   -0.0117   -1.8047 C   0  0  0  0  0  3  0  0  0  0  0  0
   -4.7366   -1.3571   -1.2092 C   0  0  0  0  0  0  0  0  0  0  0  0
    0.3640   -1.2574   -1.2038 O   0  0  0  0  0  0  0  0  0  0  0  0
   -1.7787    0.1711    2.0549 C   0  0  0  0  0  0  0  0  0  0  0  0
    4.5498    1.3941   -0.8039 C   0  0  0  0  0  3  0  0  0  0  0  0
   -4.7483    2.8738    0.5834 C   0  0  0  0  0  0  0  0  0  0  0  0
   -5.7740   -2.2908   -1.1132 C   0  0  0  0  0  0  0  0  0  0  0  0
    0.6216   -0.1930   -0.5999 C   0  0  0  0  0  0  0  0  0  0  0  0
   -5.8473   -3.1542   -0.0057 C   0  0  0  0  0  0  0  0  0  0  0  0
   -3.0406    3.5648   -0.9962 C   0  0  0  0  0  0  0  0  0  0  0  0
    0.0024    1.5313    1.1269 C   0  0  0  0  0  0  0  0  0  0  0  0
    1.9339    0.4892   -0.7761 C   0  0  0  0  0  3  0  0  0  0  0  0
   -3.2294    1.2138   -0.3661 C   0  0  0  0  0  0  0  0  0  0  0  0
    5.9922    1.7904   -0.6313 C   0  0  0  0  0  0  0  0  0  0  0  0
   -1.2099    1.5993    2.0660 C   0  0  0  0  0  0  0  0  0  0  0  0
   -1.3335   -0.9926   -1.6498 H   0  0  0  0  0  0  0  0  0  0  0  0
   -1.2282   -1.4352    0.6350 H   0  0  0  0  0  0  0  0  0  0  0  0
   -4.8386    0.7475    1.0190 H   0  0  0  0  0  0  0  0  0  0  0  0
   -3.0785   -2.1002    1.6977 H   0  0  0  0  0  0  0  0  0  0  0  0
   -1.7909    1.9555   -1.7899 H   0  0  0  0  0  0  0  0  0  0  0  0
   -4.4440    4.9343   -0.0483 H   0  0  0  0  0  0  0  0  0  0  0  0
    4.8783    0.0189   -2.5102 H   0  0  0  0  0  0  0  0  0  0  0  0
   -4.9097   -3.7490    1.8622 H   0  0  0  0  0  0  0  0  0  0  0  0
    2.4581   -0.8149   -2.4716 H   0  0  0  0  0  0  0  0  0  0  0  0
   -4.6624   -0.6922   -2.0822 H   0  0  0  0  0  0  0  0  0  0  0  0
   -2.8537    0.1479    2.3105 H   0  0  0  0  0  0  0  0  0  0  0  0
   -1.2457   -0.4664    2.7907 H   0  0  0  0  0  0  0  0  0  0  0  0
    3.8283    2.1783   -0.5186 H   0  0  0  0  0  0  0  0  0  0  0  0
   -5.5990    3.1160    1.2387 H   0  0  0  0  0  0  0  0  0  0  0  0
   -6.5312   -2.3507   -1.9102 H   0  0  0  0  0  0  0  0  0  0  0  0
   -6.6614   -3.8907    0.0720 H   0  0  0  0  0  0  0  0  0  0  0  0
   -2.5463    4.3534   -1.5848 H   0  0  0  0  0  0  0  0  0  0  0  0
    0.9450    1.3588    1.6888 H   0  0  0  0  0  0  0  0  0  0  0  0
    0.1206    2.4638    0.5365 H   0  0  0  0  0  0  0  0  0  0  0  0
    1.9795    1.5541   -0.5046 H   0  0  0  0  0  0  0  0  0  0  0  0
    6.2061    2.0913    0.4134 H   0  0  0  0  0  0  0  0  0  0  0  0
    6.2364    2.6638   -1.2750 H   0  0  0  0  0  0  0  0  0  0  0  0
    6.6880    0.9702   -0.8966 H   0  0  0  0  0  0  0  0  0  0  0  0
   -1.9588    2.3125    1.6728 H   0  0  0  0  0  0  0  0  0  0  0  0
   -0.9245    1.9359    3.0811 H   0  0  0  0  0  0  0  0  0  0  0  0
  1  3  1  0  0  0  0
  1 22  1  0  0  0  0
  2 27  1  0  0  0  0
  2  4  1  0  0  0  0
  3 28  1  1  0  0  0
  3 15  1  0  0  0  0
  4 24  1  0  0  0  0
  4  7  1  0  0  0  0
  4  3  1  0  0  0  0
  5 17  1  0  0  0  0
  5 29  1  0  0  0  0
  6 11  1  0  0  0  0
  6 30  1  0  0  0  0
  7  6  2  0  0  0  0
  8 21  2  0  0  0  0
  8 24  1  0  0  0  0
  9 32  1  0  0  0  0
  9 17  2  0  0  0  0
 10 12  1  0  0  0  0
 10 16  1  0  0  0  0
 11 34  1  0  0  0  0
 12 23  1  0  0  0  0
 13 18  2  0  0  0  0
 13  7  1  0  0  0  0
 14 19  2  0  0  0  0
 15 26  1  0  0  0  0
 15 37  1  0  0  0  0
 15 38  1  0  0  0  0
 16 25  1  0  0  0  0
 16 39  1  0  0  0  0
 17 40  1  0  0  0  0
 18 20  1  0  0  0  0
 19  1  1  0  0  0  0
 20 42  1  0  0  0  0
 20 11  2  0  0  0  0
 21  9  1  0  0  0  0
 22 44  1  0  0  0  0
 22 26  1  0  0  0  0
 23 19  1  0  0  0  0
 23 46  1  0  0  0  0
 24  5  2  0  0  0  0
 25 47  1  0  0  0  0
 26 51  1  0  0  0  0
 31  8  1  0  0  0  0
 33 10  1  0  0  0  0
 35 12  1  0  0  0  0
 36 13  1  0  0  0  0
 41 18  1  0  0  0  0
 43 21  1  0  0  0  0
 45 22  1  0  0  0  0
 48 25  1  0  0  0  0
 49 25  1  0  0  0  0
 50 26  1  0  0  0  0
M  END
