5
 OpenBabel05122313113D

 10 10  0  0  0  0  0  0  0  0999 V2000
    2.9819   -3.5583   -0.6430 O   0  0  0  0  0  0  0  0  0  0  0  0
   -2.4873   -4.0433    0.1040 O   0  0  0  0  0  0  0  0  0  0  0  0
    1.7872   -3.5225   -0.4042 C   0  0  0  0  0  0  0  0  0  0  0  0
    0.7496   -2.9642   -1.3427 C   0  0  0  0  0  3  0  0  0  0  0  0
   -0.6647   -3.0675   -1.1504 C   0  0  0  0  0  3  0  0  0  0  0  0
   -1.3016   -3.7645    0.0298 C   0  0  0  0  0  0  0  0  0  0  0  0
   -0.1989   -4.0517    0.9912 C   0  0  0  0  0  3  0  0  0  0  0  0
    1.0390   -3.9825    0.8036 C   0  0  0  0  0  3  0  0  0  0  0  0
    1.1436   -2.7880   -2.3575 H   0  0  0  0  0  0  0  0  0  0  0  0
   -1.3459   -2.9732   -2.0121 H   0  0  0  0  0  0  0  0  0  0  0  0
  1  3  2  0  0  0  0
  3  8  1  0  0  0  0
  4  5  1  0  0  0  0
  4  3  1  0  0  0  0
  5  6  1  0  0  0  0
  6  2  2  0  0  0  0
  6  7  1  0  0  0  0
  8  7  2  0  0  0  0
  9  4  1  0  0  0  0
 10  5  1  0  0  0  0
M  END
