1
 OpenBabel05122313113D

 28 30  0  0  0  0  0  0  0  0999 V2000
    1.7188   -1.5695    1.4080 C   0  0  0  0  0  3  0  0  0  0  0  0
    1.6175   -1.2358    2.4451 H   0  0  0  0  0  0  0  0  0  0  0  0
    0.6278   -1.9702    0.5522 C   0  0  0  0  0  0  0  0  0  0  0  0
    1.1817   -2.4154   -0.6948 C   0  0  0  0  0  0  0  0  0  0  0  0
    0.5971   -2.7500   -1.5571 H   0  0  0  0  0  0  0  0  0  0  0  0
    2.6077   -2.3931   -0.5851 C   0  0  0  0  0  0  0  0  0  0  0  0
    3.6429   -2.7758   -1.4846 C   0  0  0  0  0  0  0  0  0  0  0  0
    3.3898   -3.1709   -2.4789 H   0  0  0  0  0  0  0  0  0  0  0  0
    4.9597   -2.6292   -1.0818 C   0  0  0  0  0  0  0  0  0  0  0  0
    5.7725   -2.9191   -1.7641 H   0  0  0  0  0  0  0  0  0  0  0  0
    5.2923   -2.1009    0.2041 C   0  0  0  0  0  0  0  0  0  0  0  0
    6.3528   -1.9987    0.4790 H   0  0  0  0  0  0  0  0  0  0  0  0
    4.3128   -1.7124    1.1031 C   0  0  0  0  0  0  0  0  0  0  0  0
    4.5739   -1.2982    2.0875 H   0  0  0  0  0  0  0  0  0  0  0  0
    2.9460   -1.8594    0.7273 C   0  0  0  0  0  0  0  0  0  0  0  0
   -0.7521   -1.8392    0.8422 C   0  0  0  0  0  0  0  0  0  0  0  0
   -1.9553   -1.7016    1.0720 C   0  0  0  0  0  0  0  0  0  0  0  0
   -3.3472   -1.5413    1.3145 C   0  0  0  0  0  0  0  0  0  0  0  0
   -3.8119   -0.9635    2.5240 C   0  0  0  0  0  0  0  0  0  0  0  0
   -3.0798   -0.6374    3.2767 H   0  0  0  0  0  0  0  0  0  0  0  0
   -5.1840   -0.8120    2.7522 C   0  0  0  0  0  0  0  0  0  0  0  0
   -5.5326   -0.3628    3.6945 H   0  0  0  0  0  0  0  0  0  0  0  0
   -6.1138   -1.2305    1.7859 C   0  0  0  0  0  0  0  0  0  0  0  0
   -7.1920   -1.1062    1.9676 H   0  0  0  0  0  0  0  0  0  0  0  0
   -5.6644   -1.7969    0.5815 C   0  0  0  0  0  0  0  0  0  0  0  0
   -6.3885   -2.1079   -0.1857 H   0  0  0  0  0  0  0  0  0  0  0  0
   -4.2960   -1.9512    0.3415 C   0  0  0  0  0  0  0  0  0  0  0  0
   -3.9382   -2.3828   -0.6037 H   0  0  0  0  0  0  0  0  0  0  0  0
  1  2  1  0  0  0  0
  3 16  1  0  0  0  0
  3  1  1  0  0  0  0
  4  6  1  0  0  0  0
  4  3  2  0  0  0  0
  5  4  1  0  0  0  0
  6 15  1  0  0  0  0
  7  9  1  0  0  0  0
  7  6  2  0  0  0  0
  8  7  1  0  0  0  0
  9 11  2  0  0  0  0
 10  9  1  0  0  0  0
 11 12  1  0  0  0  0
 11 13  1  0  0  0  0
 13 14  1  0  0  0  0
 15 13  2  0  0  0  0
 15  1  1  0  0  0  0
 16 17  3  0  0  0  0
 17 18  1  0  0  0  0
 18 19  1  0  0  0  0
 19 21  2  0  0  0  0
 19 20  1  0  0  0  0
 21 22  1  0  0  0  0
 23 24  1  0  0  0  0
 23 21  1  0  0  0  0
 25 23  2  0  0  0  0
 26 25  1  0  0  0  0
 27 25  1  0  0  0  0
 27 18  2  0  0  0  0
 28 27  1  0  0  0  0
M  END
