4
 OpenBabel05122313113D

 13 13  0  0  1  0  0  0  0  0999 V2000
    2.0227   -0.8504   -0.5649 C   0  0  0  0  0  0  0  0  0  0  0  0
    1.3304   -1.2175    0.7401 C   0  0  1  0  0  3  0  0  0  0  0  0
    0.3011   -2.1490    0.4136 C   0  0  0  0  0  3  0  0  0  0  0  0
    0.0459   -2.0640   -1.0170 C   0  0  0  0  0  3  0  0  0  0  0  0
    0.9198   -1.0745   -1.5647 C   0  0  0  0  0  3  0  0  0  0  0  0
    1.9553   -0.9500    2.0659 C   0  0  0  0  0  0  0  0  0  0  0  0
    3.1605   -0.4503   -0.7207 O   0  0  0  0  0  0  0  0  0  0  0  0
   -0.2020   -2.8326    1.1108 H   0  0  0  0  0  0  0  0  0  0  0  0
   -0.6679   -2.6854   -1.5728 H   0  0  0  0  0  0  0  0  0  0  0  0
    0.9846   -0.7992   -2.6242 H   0  0  0  0  0  0  0  0  0  0  0  0
    2.1783    0.1323    2.1560 H   0  0  0  0  0  0  0  0  0  0  0  0
    2.9246   -1.4872    2.1426 H   0  0  0  0  0  0  0  0  0  0  0  0
    1.3053   -1.2595    2.9067 H   0  0  0  0  0  0  0  0  0  0  0  0
  1  2  1  0  0  0  0
  2  6  1  1  0  0  0
  3  2  1  0  0  0  0
  3  8  1  0  0  0  0
  4  3  1  0  0  0  0
  5  4  1  0  0  0  0
  5  1  1  0  0  0  0
  6 12  1  0  0  0  0
  6 11  1  0  0  0  0
  6 13  1  0  0  0  0
  7  1  2  0  0  0  0
  9  4  1  0  0  0  0
 10  5  1  0  0  0  0
M  END
