6
 OpenBabel05122313113D

 16 15  0  0  0  0  0  0  0  0999 V2000
    2.7236   -0.8633   -0.6828 O   0  0  0  0  0  0  0  0  0  0  0  0
   -3.5610   -0.8565   -0.2255 O   0  0  0  0  0  0  0  0  0  0  0  0
    3.5396   -0.8315    0.4767 C   0  0  0  0  0  0  0  0  0  0  0  0
    1.4255   -1.1997   -0.4537 C   0  0  0  0  0  3  0  0  0  0  0  0
    0.5065   -1.0104   -1.5335 C   0  0  0  0  0  3  0  0  0  0  0  0
   -0.8797   -1.1382   -1.2577 C   0  0  0  0  0  3  0  0  0  0  0  0
   -1.2711   -1.4821    0.0873 C   0  0  0  0  0  3  0  0  0  0  0  0
   -2.6974   -1.3753    0.4674 C   0  0  0  0  0  0  0  0  0  0  0  0
    4.5757   -0.6385    0.1436 H   0  0  0  0  0  0  0  0  0  0  0  0
    3.5060   -1.7992    1.0276 H   0  0  0  0  0  0  0  0  0  0  0  0
    3.2148   -0.0197    1.1662 H   0  0  0  0  0  0  0  0  0  0  0  0
    1.2722   -2.0062    0.2890 H   0  0  0  0  0  0  0  0  0  0  0  0
    0.8708   -0.6462   -2.5065 H   0  0  0  0  0  0  0  0  0  0  0  0
   -1.6456   -0.9062   -2.0129 H   0  0  0  0  0  0  0  0  0  0  0  0
   -0.6900   -2.2163    0.6700 H   0  0  0  0  0  0  0  0  0  0  0  0
   -2.9503   -1.8212    1.4750 H   0  0  0  0  0  0  0  0  0  0  0  0
  1  4  1  0  0  0  0
  1  3  1  0  0  0  0
  2  8  2  0  0  0  0
  3 10  1  0  0  0  0
  3 11  1  0  0  0  0
  4 12  1  0  0  0  0
  5  6  1  0  0  0  0
  5  4  1  0  0  0  0
  6  7  1  0  0  0  0
  7  8  1  0  0  0  0
  7 15  1  0  0  0  0
  8 16  1  0  0  0  0
  9  3  1  0  0  0  0
 13  5  1  0  0  0  0
 14  6  1  0  0  0  0
M  END
