6
 OpenBabel05122313113D

 44 45  0  0  1  0  0  0  0  0999 V2000
   -1.9096   -0.4551   -1.4352 O   0  0  0  0  0  0  0  0  0  0  0  0
   -1.6223   -1.3873    0.6269 N   0  0  0  0  0  0  0  0  0  0  0  0
    3.3522    2.6115    0.1002 N   0  0  0  0  0  0  0  0  0  0  0  0
    2.2988    1.7892   -0.2133 C   0  0  0  0  0  3  0  0  0  0  0  0
    2.1323    1.0897   -1.4444 C   0  0  0  0  0  3  0  0  0  0  0  0
    1.0417    0.1805   -1.5886 C   0  0  0  0  0  3  0  0  0  0  0  0
    0.2214   -0.0856   -0.4408 C   0  0  0  0  0  3  0  0  0  0  0  0
   -0.9163   -1.0660   -0.6036 C   0  0  2  0  0  0  0  0  0  0  0  0
   -2.9378   -1.8357    0.1709 C   0  0  2  0  0  0  0  0  0  0  0  0
   -3.2130   -0.8139   -0.9710 C   0  0  1  0  0  0  0  0  0  0  0  0
   -0.9357   -2.3059    1.5141 C   0  0  0  0  0  0  0  0  0  0  0  0
   -3.9850   -1.9015    1.2736 C   0  0  0  0  0  0  0  0  0  0  0  0
    4.5617    2.6063   -0.7010 C   0  0  0  0  0  0  0  0  0  0  0  0
    3.5244    2.9484    1.5023 C   0  0  0  0  0  0  0  0  0  0  0  0
   -4.0071    0.4059   -0.5479 C   0  0  0  0  0  0  0  0  0  0  0  0
   -5.3965    0.4542   -0.7667 C   0  0  0  0  0  0  0  0  0  0  0  0
   -6.1554    1.5494   -0.3262 C   0  0  0  0  0  0  0  0  0  0  0  0
   -5.5273    2.6172    0.3335 C   0  0  0  0  0  0  0  0  0  0  0  0
   -4.1387    2.5828    0.5441 C   0  0  0  0  0  0  0  0  0  0  0  0
   -3.3838    1.4859    0.1050 C   0  0  0  0  0  0  0  0  0  0  0  0
    1.4147    1.9568    0.4187 H   0  0  0  0  0  0  0  0  0  0  0  0
    2.8496    1.2045   -2.2692 H   0  0  0  0  0  0  0  0  0  0  0  0
    0.8863   -0.3420   -2.5442 H   0  0  0  0  0  0  0  0  0  0  0  0
   -0.0565    0.7432    0.2342 H   0  0  0  0  0  0  0  0  0  0  0  0
   -0.5480   -1.9989   -1.1202 H   0  0  0  0  0  0  0  0  0  0  0  0
   -2.8553   -2.8514   -0.3079 H   0  0  0  0  0  0  0  0  0  0  0  0
   -3.7645   -1.3254   -1.7921 H   0  0  0  0  0  0  0  0  0  0  0  0
   -1.5377   -2.4657    2.4293 H   0  0  0  0  0  0  0  0  0  0  0  0
    0.0347   -1.8796    1.8259 H   0  0  0  0  0  0  0  0  0  0  0  0
   -0.7416   -3.3052    1.0442 H   0  0  0  0  0  0  0  0  0  0  0  0
   -3.7552   -2.7092    1.9962 H   0  0  0  0  0  0  0  0  0  0  0  0
   -4.9849   -2.1136    0.8460 H   0  0  0  0  0  0  0  0  0  0  0  0
   -4.0388   -0.9394    1.8187 H   0  0  0  0  0  0  0  0  0  0  0  0
    5.1825    3.4797   -0.4230 H   0  0  0  0  0  0  0  0  0  0  0  0
    4.3193    2.6972   -1.7770 H   0  0  0  0  0  0  0  0  0  0  0  0
    5.1705    1.6845   -0.5550 H   0  0  0  0  0  0  0  0  0  0  0  0
    4.0875    3.8976    1.6028 H   0  0  0  0  0  0  0  0  0  0  0  0
    4.0717    2.1489    2.0573 H   0  0  0  0  0  0  0  0  0  0  0  0
    2.5354    3.0739    1.9839 H   0  0  0  0  0  0  0  0  0  0  0  0
   -5.8900   -0.3782   -1.2949 H   0  0  0  0  0  0  0  0  0  0  0  0
   -7.2410    1.5732   -0.5069 H   0  0  0  0  0  0  0  0  0  0  0  0
   -6.1183    3.4803    0.6762 H   0  0  0  0  0  0  0  0  0  0  0  0
   -3.6396    3.4214    1.0539 H   0  0  0  0  0  0  0  0  0  0  0  0
   -2.2964    1.4533    0.2580 H   0  0  0  0  0  0  0  0  0  0  0  0
  1 10  1  0  0  0  0
  1  8  1  0  0  0  0
  2 11  1  0  0  0  0
  3 14  1  0  0  0  0
  4  3  1  0  0  0  0
  4 21  1  0  0  0  0
  5  4  1  0  0  0  0
  6  5  1  0  0  0  0
  6  7  1  0  0  0  0
  7 24  1  0  0  0  0
  8 25  1  6  0  0  0
  8  7  1  0  0  0  0
  8  2  1  0  0  0  0
  9 26  1  6  0  0  0
  9  2  1  0  0  0  0
  9 12  1  0  0  0  0
 10 27  1  6  0  0  0
 10 15  1  0  0  0  0
 10  9  1  0  0  0  0
 11 29  1  0  0  0  0
 11 28  1  0  0  0  0
 12 33  1  0  0  0  0
 12 31  1  0  0  0  0
 13 36  1  0  0  0  0
 13 34  1  0  0  0  0
 13  3  1  0  0  0  0
 14 37  1  0  0  0  0
 14 39  1  0  0  0  0
 14 38  1  0  0  0  0
 15 20  1  0  0  0  0
 16 15  2  0  0  0  0
 16 17  1  0  0  0  0
 17 18  2  0  0  0  0
 18 19  1  0  0  0  0
 18 42  1  0  0  0  0
 19 43  1  0  0  0  0
 20 44  1  0  0  0  0
 20 19  2  0  0  0  0
 22  5  1  0  0  0  0
 23  6  1  0  0  0  0
 30 11  1  0  0  0  0
 32 12  1  0  0  0  0
 35 13  1  0  0  0  0
 40 16  1  0  0  0  0
 41 17  1  0  0  0  0
M  END
