17
 OpenBabel05122313113D

 52 54  0  0  1  0  0  0  0  0999 V2000
   -0.4369   -2.0185    1.5094 Si  0  0  0  0  0  0  0  0  0  0  0  0
   -2.1648    1.1430    0.1679 C   0  0  1  0  0  3  0  0  0  0  0  0
   -2.6852    2.0814    0.9655 O   0  0  0  0  0  0  0  0  0  0  0  0
    0.1928   -1.3082   -0.1291 C   0  0  2  0  0  3  0  0  0  0  0  0
   -0.8518    1.1542    0.0929 N   0  0  1  0  0  0  0  0  0  0  0  0
   -0.7136   -0.6802    2.8290 C   0  0  0  0  0  0  0  0  0  0  0  0
    1.6065   -1.7813   -2.1620 C   0  0  0  0  0  0  0  0  0  0  0  0
    0.4232    3.3309    0.0173 C   0  0  0  0  0  0  0  0  0  0  0  0
    0.7577    0.5360   -1.9110 C   0  0  0  0  0  0  0  0  0  0  0  0
   -3.1113    0.2383   -0.4854 C   0  0  0  0  0  0  0  0  0  0  0  0
    1.5192   -0.4384   -2.6156 C   0  0  0  0  0  0  0  0  0  0  0  0
   -1.5916    2.8010    1.5994 C   0  0  0  0  0  0  0  0  0  0  0  0
   -0.3209    2.2968    0.8862 C   0  0  1  0  0  0  0  0  0  0  0  0
   -5.3434   -0.7391   -0.5301 C   0  0  0  0  0  0  0  0  0  0  0  0
   -4.4187    0.1363    0.0477 C   0  0  0  0  0  0  0  0  0  0  0  0
   -3.6916   -1.3927   -2.1944 C   0  0  0  0  0  0  0  0  0  0  0  0
    0.9748   -2.1838   -0.9424 C   0  0  0  0  0  3  0  0  0  0  0  0
   -2.0831   -2.9196    1.2072 C   0  0  0  0  0  0  0  0  0  0  0  0
    0.0448    0.1328   -0.6343 B   0  0  0  0  0  0  0  0  0  0  0  0
   -2.7542   -0.5276   -1.6192 C   0  0  0  0  0  0  0  0  0  0  0  0
    0.8041   -3.2682    2.2030 C   0  0  0  0  0  0  0  0  0  0  0  0
   -0.4660    3.9642   -1.0560 C   0  0  0  0  0  0  0  0  0  0  0  0
    1.0918    4.3719    0.9228 C   0  0  0  0  0  0  0  0  0  0  0  0
   -4.9807   -1.5077   -1.6495 C   0  0  0  0  0  0  0  0  0  0  0  0
   -1.5784   -0.0253    2.6002 H   0  0  0  0  0  0  0  0  0  0  0  0
    0.1922   -0.0554    2.9638 H   0  0  0  0  0  0  0  0  0  0  0  0
   -0.9296   -1.1715    3.8003 H   0  0  0  0  0  0  0  0  0  0  0  0
    2.2329   -2.5006   -2.7075 H   0  0  0  0  0  0  0  0  0  0  0  0
    1.2327    2.7554   -0.4802 H   0  0  0  0  0  0  0  0  0  0  0  0
    0.7749    1.5613   -2.3109 H   0  0  0  0  0  0  0  0  0  0  0  0
    2.0904   -0.1557   -3.5145 H   0  0  0  0  0  0  0  0  0  0  0  0
   -1.6123    2.5558    2.6793 H   0  0  0  0  0  0  0  0  0  0  0  0
   -1.7821    3.8828    1.4646 H   0  0  0  0  0  0  0  0  0  0  0  0
    0.4008    1.8903    1.6170 H   0  0  0  0  0  0  0  0  0  0  0  0
   -6.3535   -0.8261   -0.1033 H   0  0  0  0  0  0  0  0  0  0  0  0
   -4.6908    0.7388    0.9249 H   0  0  0  0  0  0  0  0  0  0  0  0
   -3.4082   -1.9872   -3.0752 H   0  0  0  0  0  0  0  0  0  0  0  0
    1.1677   -3.2192   -0.6138 H   0  0  0  0  0  0  0  0  0  0  0  0
   -2.8767   -2.2313    0.8537 H   0  0  0  0  0  0  0  0  0  0  0  0
   -2.4412   -3.4075    2.1378 H   0  0  0  0  0  0  0  0  0  0  0  0
   -1.9574   -3.7088    0.4375 H   0  0  0  0  0  0  0  0  0  0  0  0
   -1.7417   -0.4469   -2.0385 H   0  0  0  0  0  0  0  0  0  0  0  0
    1.7948   -2.8019    2.3732 H   0  0  0  0  0  0  0  0  0  0  0  0
    0.9527   -4.1314    1.5227 H   0  0  0  0  0  0  0  0  0  0  0  0
    0.4355   -3.6695    3.1699 H   0  0  0  0  0  0  0  0  0  0  0  0
   -0.9450    3.1995   -1.7005 H   0  0  0  0  0  0  0  0  0  0  0  0
    0.1328    4.6245   -1.7141 H   0  0  0  0  0  0  0  0  0  0  0  0
   -1.2705    4.5916   -0.6160 H   0  0  0  0  0  0  0  0  0  0  0  0
    1.7728    3.8855    1.6494 H   0  0  0  0  0  0  0  0  0  0  0  0
    0.3465    4.9712    1.4891 H   0  0  0  0  0  0  0  0  0  0  0  0
    1.6901    5.0826    0.3191 H   0  0  0  0  0  0  0  0  0  0  0  0
   -5.7085   -2.1995   -2.0999 H   0  0  0  0  0  0  0  0  0  0  0  0
  1 21  1  0  0  0  0
  1  6  1  0  0  0  0
  2 10  1  1  0  0  0
  2  3  1  0  0  0  0
  3 12  1  0  0  0  0
  4  1  1  1  0  0  0
  5 19  1  1  0  0  0
  5  2  1  0  0  0  0
  5 13  1  0  0  0  0
  6 26  1  0  0  0  0
  6 27  1  0  0  0  0
  7 17  1  0  0  0  0
  8 13  1  0  0  0  0
  8 23  1  0  0  0  0
  9 19  2  0  0  0  0
 10 15  1  0  0  0  0
 11  7  2  0  0  0  0
 11  9  1  0  0  0  0
 12 32  1  0  0  0  0
 13 12  1  0  0  0  0
 13 34  1  1  0  0  0
 14 35  1  0  0  0  0
 14 15  2  0  0  0  0
 15 36  1  0  0  0  0
 16 24  2  0  0  0  0
 16 20  1  0  0  0  0
 17 38  1  0  0  0  0
 17  4  1  0  0  0  0
 18  1  1  0  0  0  0
 18 40  1  0  0  0  0
 19  4  1  0  0  0  0
 20 10  2  0  0  0  0
 21 43  1  0  0  0  0
 21 45  1  0  0  0  0
 22 48  1  0  0  0  0
 22  8  1  0  0  0  0
 23 50  1  0  0  0  0
 23 49  1  0  0  0  0
 24 14  1  0  0  0  0
 25  6  1  0  0  0  0
 28  7  1  0  0  0  0
 29  8  1  0  0  0  0
 30  9  1  0  0  0  0
 31 11  1  0  0  0  0
 33 12  1  0  0  0  0
 37 16  1  0  0  0  0
 39 18  1  0  0  0  0
 41 18  1  0  0  0  0
 42 20  1  0  0  0  0
 44 21  1  0  0  0  0
 46 22  1  0  0  0  0
 47 22  1  0  0  0  0
 51 23  1  0  0  0  0
 52 24  1  0  0  0  0
M  END
