2
 OpenBabel05122313113D

 23 22  0  0  0  0  0  0  0  0999 V2000
   -0.2860   -1.2614   -2.1191 C   0  0  0  0  0  3  0  0  0  0  0  0
    0.0055    0.1467   -2.3716 C   0  0  0  0  0  3  0  0  0  0  0  0
    1.0949    0.7047   -1.5857 C   0  0  0  0  0  3  0  0  0  0  0  0
    2.3156    0.0119   -1.1895 C   0  0  0  0  0  0  0  0  0  0  0  0
    3.3223    0.6537   -0.6904 N   0  0  0  0  0  0  0  0  0  0  0  0
    4.5712   -0.0274   -0.3280 C   0  0  0  0  0  0  0  0  0  0  0  0
    4.5058   -1.5665   -0.2684 C   0  0  0  0  0  0  0  0  0  0  0  0
    4.9984    0.5213    1.0486 C   0  0  0  0  0  0  0  0  0  0  0  0
    5.6170    0.3971   -1.3824 C   0  0  0  0  0  0  0  0  0  0  0  0
   -1.1417   -1.6952   -2.6686 H   0  0  0  0  0  0  0  0  0  0  0  0
    0.5453   -1.9827   -2.0202 H   0  0  0  0  0  0  0  0  0  0  0  0
   -0.5137    0.7509   -3.1342 H   0  0  0  0  0  0  0  0  0  0  0  0
    1.2257    1.8005   -1.6396 H   0  0  0  0  0  0  0  0  0  0  0  0
    2.3193   -1.0931   -1.3397 H   0  0  0  0  0  0  0  0  0  0  0  0
    3.7447   -1.9131    0.4606 H   0  0  0  0  0  0  0  0  0  0  0  0
    4.2621   -2.0104   -1.2550 H   0  0  0  0  0  0  0  0  0  0  0  0
    5.4852   -1.9794    0.0461 H   0  0  0  0  0  0  0  0  0  0  0  0
    4.2762    0.2238    1.8356 H   0  0  0  0  0  0  0  0  0  0  0  0
    5.9998    0.1429    1.3400 H   0  0  0  0  0  0  0  0  0  0  0  0
    5.0283    1.6283    1.0191 H   0  0  0  0  0  0  0  0  0  0  0  0
    5.3407    0.0013   -2.3807 H   0  0  0  0  0  0  0  0  0  0  0  0
    5.6537    1.5020   -1.4538 H   0  0  0  0  0  0  0  0  0  0  0  0
    6.6279    0.0209   -1.1215 H   0  0  0  0  0  0  0  0  0  0  0  0
  1 11  1  0  0  0  0
  2  1  1  0  0  0  0
  2  3  1  0  0  0  0
  3  4  1  0  0  0  0
  4  5  2  0  0  0  0
  5  6  1  0  0  0  0
  6  7  1  0  0  0  0
  6  8  1  0  0  0  0
  7 17  1  0  0  0  0
  7 15  1  0  0  0  0
  8 19  1  0  0  0  0
  8 18  1  0  0  0  0
  9 23  1  0  0  0  0
  9  6  1  0  0  0  0
 10  1  1  0  0  0  0
 12  2  1  0  0  0  0
 13  3  1  0  0  0  0
 14  4  1  0  0  0  0
 16  7  1  0  0  0  0
 20  8  1  0  0  0  0
 21  9  1  0  0  0  0
 22  9  1  0  0  0  0
M  END
