5
 OpenBabel05122313113D

 64 66  0  0  0  0  0  0  0  0999 V2000
    1.5746   -2.7442    0.0023 I   0  0  0  0  0  0  0  0  0  0  0  0
    2.1199    0.2564   -0.0005 N   0  0  0  0  0  0  0  0  0  0  0  0
    1.1468   -0.7177    0.0006 C   0  0  0  0  0  0  0  0  0  0  0  0
    1.6008    1.4778   -0.0014 N   0  0  0  0  0  2  0  0  0  0  0  0
   -0.1013   -0.0712    0.0003 C   0  0  0  0  0  3  0  0  0  0  0  0
    3.5508    0.0825   -0.0007 C   0  0  0  0  0  0  0  0  0  0  0  0
    0.2833    1.2594   -0.0009 N   0  0  0  0  0  0  0  0  0  0  0  0
    5.6008   -0.1867    1.2170 C   0  0  0  0  0  0  0  0  0  0  0  0
    6.1570   -0.2608    2.1623 H   0  0  0  0  0  0  0  0  0  0  0  0
    6.2877   -0.2763   -0.0010 C   0  0  0  0  0  0  0  0  0  0  0  0
    7.3788   -0.4196   -0.0011 H   0  0  0  0  0  0  0  0  0  0  0  0
    5.6002   -0.1895   -1.2187 C   0  0  0  0  0  0  0  0  0  0  0  0
    6.1559   -0.2658   -2.1642 H   0  0  0  0  0  0  0  0  0  0  0  0
    4.2052   -0.0093   -1.2495 C   0  0  0  0  0  0  0  0  0  0  0  0
    4.2059   -0.0065    1.2480 C   0  0  0  0  0  0  0  0  0  0  0  0
    3.4386    0.1381   -2.5570 C   0  0  0  0  0  0  0  0  0  0  0  0
    2.3878   -0.1657   -2.3635 H   0  0  0  0  0  0  0  0  0  0  0  0
    3.9677   -0.7718   -3.6729 C   0  0  0  0  0  0  0  0  0  0  0  0
    3.3054   -0.7096   -4.5591 H   0  0  0  0  0  0  0  0  0  0  0  0
    4.0088   -1.8306   -3.3487 H   0  0  0  0  0  0  0  0  0  0  0  0
    4.9829   -0.4730   -4.0056 H   0  0  0  0  0  0  0  0  0  0  0  0
    3.4171    1.6170   -2.9916 C   0  0  0  0  0  0  0  0  0  0  0  0
    4.4452    1.9783   -3.1999 H   0  0  0  0  0  0  0  0  0  0  0  0
    2.9819    2.2619   -2.2031 H   0  0  0  0  0  0  0  0  0  0  0  0
    2.8142    1.7441   -3.9135 H   0  0  0  0  0  0  0  0  0  0  0  0
   -0.6050    2.3964   -0.0015 C   0  0  0  0  0  0  0  0  0  0  0  0
   -1.9073    4.0065   -1.2178 C   0  0  0  0  0  0  0  0  0  0  0  0
   -2.2663    4.4348   -2.1654 H   0  0  0  0  0  0  0  0  0  0  0  0
   -2.3417    4.5497   -0.0024 C   0  0  0  0  0  0  0  0  0  0  0  0
   -3.0363    5.4033   -0.0028 H   0  0  0  0  0  0  0  0  0  0  0  0
   -1.9060    4.0086    1.2134 C   0  0  0  0  0  0  0  0  0  0  0  0
   -2.2640    4.4387    2.1606 H   0  0  0  0  0  0  0  0  0  0  0  0
   -1.0237    2.9132    1.2448 C   0  0  0  0  0  0  0  0  0  0  0  0
   -0.5978    2.2921    2.5682 C   0  0  0  0  0  0  0  0  0  0  0  0
    0.1981    1.5493    2.3550 H   0  0  0  0  0  0  0  0  0  0  0  0
    0.0008    3.3311    3.5292 C   0  0  0  0  0  0  0  0  0  0  0  0
    0.3596    2.8365    4.4547 H   0  0  0  0  0  0  0  0  0  0  0  0
   -0.7502    4.0887    3.8335 H   0  0  0  0  0  0  0  0  0  0  0  0
    0.8561    3.8658    3.0699 H   0  0  0  0  0  0  0  0  0  0  0  0
   -1.7754    1.5315    3.2047 C   0  0  0  0  0  0  0  0  0  0  0  0
   -2.1746    0.7603    2.5139 H   0  0  0  0  0  0  0  0  0  0  0  0
   -2.6061    2.2225    3.4561 H   0  0  0  0  0  0  0  0  0  0  0  0
   -1.4548    1.0288    4.1399 H   0  0  0  0  0  0  0  0  0  0  0  0
   -0.6003    2.2879   -2.5710 C   0  0  0  0  0  0  0  0  0  0  0  0
    0.1950    1.5446   -2.3573 H   0  0  0  0  0  0  0  0  0  0  0  0
   -0.0011    3.3253   -3.5334 C   0  0  0  0  0  0  0  0  0  0  0  0
    0.3569    2.8294   -4.4586 H   0  0  0  0  0  0  0  0  0  0  0  0
    0.8549    3.8597   -3.0750 H   0  0  0  0  0  0  0  0  0  0  0  0
   -0.7514    4.0833   -3.8380 H   0  0  0  0  0  0  0  0  0  0  0  0
   -1.7787    1.5275   -3.2062 C   0  0  0  0  0  0  0  0  0  0  0  0
   -1.4589    1.0236   -4.1410 H   0  0  0  0  0  0  0  0  0  0  0  0
   -2.6089    2.2190   -3.4582 H   0  0  0  0  0  0  0  0  0  0  0  0
   -2.1783    0.7576   -2.5144 H   0  0  0  0  0  0  0  0  0  0  0  0
    3.4400    0.1441    2.5556 C   0  0  0  0  0  0  0  0  0  0  0  0
    2.3889   -0.1597    2.3634 H   0  0  0  0  0  0  0  0  0  0  0  0
    3.9693   -0.7636    3.6732 C   0  0  0  0  0  0  0  0  0  0  0  0
    4.0098   -1.8232    3.3512 H   0  0  0  0  0  0  0  0  0  0  0  0
    3.3075   -0.6992    4.5597 H   0  0  0  0  0  0  0  0  0  0  0  0
    4.9849   -0.4646    4.0047 H   0  0  0  0  0  0  0  0  0  0  0  0
    3.4193    1.6239    2.9870 C   0  0  0  0  0  0  0  0  0  0  0  0
    4.4477    1.9853    3.1939 H   0  0  0  0  0  0  0  0  0  0  0  0
    2.8169    1.7532    3.9090 H   0  0  0  0  0  0  0  0  0  0  0  0
    2.9837    2.2672    2.1974 H   0  0  0  0  0  0  0  0  0  0  0  0
   -1.0250    2.9110   -1.2482 C   0  0  0  0  0  0  0  0  0  0  0  0
  2  3  1  0  0  0  0
  3  1  1  0  0  0  0
  4  7  1  0  0  0  0
  4  2  1  0  0  0  0
  5  3  2  0  0  0  0
  6  2  1  0  0  0  0
  6 15  1  0  0  0  0
  7  5  1  0  0  0  0
  8 15  2  0  0  0  0
  8  9  1  0  0  0  0
 10  8  1  0  0  0  0
 11 10  1  0  0  0  0
 12 10  2  0  0  0  0
 13 12  1  0  0  0  0
 14 12  1  0  0  0  0
 14  6  2  0  0  0  0
 15 54  1  0  0  0  0
 16 17  1  0  0  0  0
 16 14  1  0  0  0  0
 18 20  1  0  0  0  0
 18 16  1  0  0  0  0
 19 18  1  0  0  0  0
 21 18  1  0  0  0  0
 22 16  1  0  0  0  0
 22 24  1  0  0  0  0
 23 22  1  0  0  0  0
 25 22  1  0  0  0  0
 26  7  1  0  0  0  0
 26 33  1  0  0  0  0
 27 29  2  0  0  0  0
 28 27  1  0  0  0  0
 29 31  1  0  0  0  0
 30 29  1  0  0  0  0
 31 33  2  0  0  0  0
 31 32  1  0  0  0  0
 33 34  1  0  0  0  0
 34 40  1  0  0  0  0
 34 36  1  0  0  0  0
 35 34  1  0  0  0  0
 36 38  1  0  0  0  0
 36 37  1  0  0  0  0
 39 36  1  0  0  0  0
 40 42  1  0  0  0  0
 40 43  1  0  0  0  0
 41 40  1  0  0  0  0
 44 45  1  0  0  0  0
 44 64  1  0  0  0  0
 46 48  1  0  0  0  0
 46 44  1  0  0  0  0
 47 46  1  0  0  0  0
 49 46  1  0  0  0  0
 50 44  1  0  0  0  0
 50 53  1  0  0  0  0
 51 50  1  0  0  0  0
 52 50  1  0  0  0  0
 54 60  1  0  0  0  0
 54 56  1  0  0  0  0
 55 54  1  0  0  0  0
 56 59  1  0  0  0  0
 56 58  1  0  0  0  0
 57 56  1  0  0  0  0
 60 61  1  0  0  0  0
 60 62  1  0  0  0  0
 63 60  1  0  0  0  0
 64 27  1  0  0  0  0
 64 26  2  0  0  0  0
M  END
