26
 OpenBabel05122313113D

 34 36  0  0  0  0  0  0  0  0999 V2000
   -7.7986    0.0089   -0.0244 O   0  0  0  0  0  0  0  0  0  0  0  0
   -3.8058    1.8630    1.4183 O   0  0  0  0  0  0  0  0  0  0  0  0
   -5.8043    0.8952    0.7046 N   0  0  0  0  0  0  0  0  0  0  0  0
   -5.8725   -1.1620   -0.5213 N   0  0  0  0  0  0  0  0  0  0  0  0
   -2.4550   -0.6502    0.1908 N   0  0  0  0  0  0  0  0  0  0  0  0
   -3.6914   -2.1949   -0.8980 N   0  0  0  0  0  0  0  0  0  0  0  0
   -0.7068    0.9684   -0.2117 N   0  0  0  0  0  0  0  0  0  0  0  0
    0.5812    1.8953   -1.6849 N   0  0  0  0  0  0  0  0  0  0  0  0
   -6.5789   -0.0901    0.0442 C   0  0  0  0  0  0  0  0  0  0  0  0
   -4.5039   -1.2194   -0.4035 C   0  0  0  0  0  0  0  0  0  0  0  0
   -3.7829   -0.2346    0.2727 C   0  0  0  0  0  0  0  0  0  0  0  0
   -4.3920    0.9225    0.8592 C   0  0  0  0  0  0  0  0  0  0  0  0
   -2.4642   -1.8222   -0.5270 C   0  0  0  0  0  0  0  0  0  0  0  0
   -1.5216   -2.3512   -0.7347 H   0  0  0  0  0  0  0  0  0  0  0  0
   -6.5711    2.0061    1.2626 C   0  0  0  0  0  0  0  0  0  0  0  0
   -7.1412    2.5184    0.4635 H   0  0  0  0  0  0  0  0  0  0  0  0
   -5.8505    2.6974    1.7322 H   0  0  0  0  0  0  0  0  0  0  0  0
   -7.2991    1.6323    2.0083 H   0  0  0  0  0  0  0  0  0  0  0  0
   -6.5947   -2.2101   -1.2319 C   0  0  0  0  0  0  0  0  0  0  0  0
   -6.3951   -3.1943   -0.7648 H   0  0  0  0  0  0  0  0  0  0  0  0
   -6.2632   -2.2557   -2.2880 H   0  0  0  0  0  0  0  0  0  0  0  0
   -7.6692   -1.9657   -1.1762 H   0  0  0  0  0  0  0  0  0  0  0  0
   -1.3002    0.0421    0.7455 C   0  0  0  0  0  0  0  0  0  0  0  0
   -1.6507    0.6113    1.6264 H   0  0  0  0  0  0  0  0  0  0  0  0
   -0.5283   -0.7088    1.0027 H   0  0  0  0  0  0  0  0  0  0  0  0
    0.5520    0.8655   -0.7745 C   0  0  0  0  0  2  0  0  0  0  0  0
   -1.4146    2.0497   -0.7276 C   0  0  0  0  0  0  0  0  0  0  0  0
   -2.4079    2.3099   -0.3464 H   0  0  0  0  0  0  0  0  0  0  0  0
   -0.6015    2.6270   -1.6594 C   0  0  0  0  0  0  0  0  0  0  0  0
   -0.7566    3.4947   -2.3069 H   0  0  0  0  0  0  0  0  0  0  0  0
    1.7026    2.2595   -2.5396 C   0  0  0  0  0  0  0  0  0  0  0  0
    2.2801    3.0930   -2.0911 H   0  0  0  0  0  0  0  0  0  0  0  0
    1.3115    2.5832   -3.5226 H   0  0  0  0  0  0  0  0  0  0  0  0
    2.3466    1.3687   -2.6783 H   0  0  0  0  0  0  0  0  0  0  0  0
  1  9  2  0  0  0  0
  3 12  1  0  0  0  0
  3 15  1  0  0  0  0
  4 10  1  0  0  0  0
  4  9  1  0  0  0  0
  5 11  1  0  0  0  0
  5 23  1  0  0  0  0
  6 13  2  0  0  0  0
  6 10  1  0  0  0  0
  7 23  1  0  0  0  0
  8 29  1  0  0  0  0
  8 26  1  0  0  0  0
  9  3  1  0  0  0  0
 10 11  2  0  0  0  0
 11 12  1  0  0  0  0
 12  2  2  0  0  0  0
 13  5  1  0  0  0  0
 14 13  1  0  0  0  0
 15 17  1  0  0  0  0
 15 18  1  0  0  0  0
 16 15  1  0  0  0  0
 19 22  1  0  0  0  0
 19 20  1  0  0  0  0
 19  4  1  0  0  0  0
 21 19  1  0  0  0  0
 23 25  1  0  0  0  0
 23 24  1  0  0  0  0
 26  7  1  0  0  0  0
 27 28  1  0  0  0  0
 27  7  1  0  0  0  0
 29 27  2  0  0  0  0
 30 29  1  0  0  0  0
 31 32  1  0  0  0  0
 31  8  1  0  0  0  0
 33 31  1  0  0  0  0
 34 31  1  0  0  0  0
M  END
