3
 OpenBabel05122313113D

 31 32  0  0  1  0  0  0  0  0999 V2000
   -0.2650    0.8711   -1.3789 O   0  0  0  0  0  0  0  0  0  0  0  0
    1.0011    0.3110   -1.4200 N   0  0  0  0  0  0  0  0  0  0  0  0
   -1.2634    0.5590    0.8728 C   0  0  0  0  0  3  0  0  0  0  0  0
   -0.4834    1.4812   -0.0556 C   0  0  1  0  0  0  0  0  0  0  0  0
    0.9541    1.7461    0.4282 C   0  0  0  0  0  0  0  0  0  0  0  0
    1.7169    0.7507   -0.4284 C   0  0  0  0  0  0  0  0  0  0  0  0
    3.0856    0.2407   -0.1799 C   0  0  0  0  0  0  0  0  0  0  0  0
    4.1750    1.1402   -0.0353 C   0  0  0  0  0  0  0  0  0  0  0  0
    5.4570    0.6276    0.2343 C   0  0  0  0  0  0  0  0  0  0  0  0
    5.6971   -0.7490    0.3715 C   0  0  0  0  0  0  0  0  0  0  0  0
    4.6044   -1.6227    0.2216 C   0  0  0  0  0  0  0  0  0  0  0  0
    3.3069   -1.1616   -0.0549 C   0  0  0  0  0  0  0  0  0  0  0  0
    2.1847   -2.1614   -0.1997 C   0  0  0  0  0  0  0  0  0  0  0  0
    7.0771   -1.2838    0.6599 C   0  0  0  0  0  0  0  0  0  0  0  0
    3.9985    2.6309   -0.1965 C   0  0  0  0  0  0  0  0  0  0  0  0
   -0.6533   -0.3371    1.1165 H   0  0  0  0  0  0  0  0  0  0  0  0
   -1.3987    1.1141    1.8246 H   0  0  0  0  0  0  0  0  0  0  0  0
   -1.0419    2.4178   -0.2510 H   0  0  0  0  0  0  0  0  0  0  0  0
    1.0875    1.5582    1.5123 H   0  0  0  0  0  0  0  0  0  0  0  0
    1.2864    2.7850    0.2235 H   0  0  0  0  0  0  0  0  0  0  0  0
    6.2986    1.3326    0.3318 H   0  0  0  0  0  0  0  0  0  0  0  0
    4.7662   -2.7081    0.3265 H   0  0  0  0  0  0  0  0  0  0  0  0
    2.5178   -3.1730    0.1016 H   0  0  0  0  0  0  0  0  0  0  0  0
    1.3089   -1.8839    0.4229 H   0  0  0  0  0  0  0  0  0  0  0  0
    1.8203   -2.2069   -1.2449 H   0  0  0  0  0  0  0  0  0  0  0  0
    7.8118   -0.4676    0.7996 H   0  0  0  0  0  0  0  0  0  0  0  0
    7.0839   -1.9098    1.5764 H   0  0  0  0  0  0  0  0  0  0  0  0
    7.4399   -1.9279   -0.1686 H   0  0  0  0  0  0  0  0  0  0  0  0
    4.9768    3.1320   -0.3267 H   0  0  0  0  0  0  0  0  0  0  0  0
    3.3695    2.8764   -1.0759 H   0  0  0  0  0  0  0  0  0  0  0  0
    3.5132    3.0887    0.6913 H   0  0  0  0  0  0  0  0  0  0  0  0
  1  4  1  0  0  0  0
  2  1  1  0  0  0  0
  2  6  2  0  0  0  0
  3 16  1  0  0  0  0
  3 17  1  0  0  0  0
  4 18  1  6  0  0  0
  4  5  1  0  0  0  0
  4  3  1  0  0  0  0
  5 19  1  0  0  0  0
  6  7  1  0  0  0  0
  6  5  1  0  0  0  0
  7 12  2  0  0  0  0
  7  8  1  0  0  0  0
  8  9  2  0  0  0  0
  9 21  1  0  0  0  0
  9 10  1  0  0  0  0
 10 14  1  0  0  0  0
 11 22  1  0  0  0  0
 11 10  2  0  0  0  0
 12 11  1  0  0  0  0
 13 12  1  0  0  0  0
 13 23  1  0  0  0  0
 13 24  1  0  0  0  0
 14 26  1  0  0  0  0
 14 27  1  0  0  0  0
 15  8  1  0  0  0  0
 15 31  1  0  0  0  0
 20  5  1  0  0  0  0
 25 13  1  0  0  0  0
 28 14  1  0  0  0  0
 29 15  1  0  0  0  0
 30 15  1  0  0  0  0
M  END
