7
 OpenBabel05122313113D

 26 25  0  0  0  0  0  0  0  0999 V2000
   -4.4996   -0.0074    0.0511 Si  0  0  0  0  0  0  0  0  0  0  0  0
   -3.0406    0.1333   -0.8150 O   0  0  0  0  0  0  0  0  0  0  0  0
   -0.3350   -0.2389    1.7210 C   0  0  0  0  0  3  0  0  0  0  0  0
   -1.1514   -0.5687    0.6290 C   0  0  0  0  0  3  0  0  0  0  0  0
   -1.8067    0.5021   -0.2296 C   0  0  0  0  0  0  0  0  0  0  0  0
   -0.7016    0.7090   -1.2375 C   0  0  0  0  0  3  0  0  0  0  0  0
   -0.1728   -0.4256   -1.9275 C   0  0  0  0  0  3  0  0  0  0  0  0
   -4.4229   -1.4575    1.2573 C   0  0  0  0  0  0  0  0  0  0  0  0
   -4.8282    1.5973    0.9950 C   0  0  0  0  0  0  0  0  0  0  0  0
   -5.7999   -0.2996   -1.2724 C   0  0  0  0  0  0  0  0  0  0  0  0
   -0.3816    0.7744    2.1520 H   0  0  0  0  0  0  0  0  0  0  0  0
    0.0285   -1.0382    2.3859 H   0  0  0  0  0  0  0  0  0  0  0  0
   -1.3937   -1.6207    0.4100 H   0  0  0  0  0  0  0  0  0  0  0  0
   -1.9173    1.4375    0.3721 H   0  0  0  0  0  0  0  0  0  0  0  0
   -0.5111    1.7312   -1.6065 H   0  0  0  0  0  0  0  0  0  0  0  0
   -0.7131   -1.3847   -1.9269 H   0  0  0  0  0  0  0  0  0  0  0  0
    0.4501   -0.2544   -2.8193 H   0  0  0  0  0  0  0  0  0  0  0  0
   -3.6542   -1.2936    2.0395 H   0  0  0  0  0  0  0  0  0  0  0  0
   -5.4000   -1.6013    1.7642 H   0  0  0  0  0  0  0  0  0  0  0  0
   -4.1709   -2.3983    0.7268 H   0  0  0  0  0  0  0  0  0  0  0  0
   -4.0670    1.7738    1.7827 H   0  0  0  0  0  0  0  0  0  0  0  0
   -4.8247    2.4706    0.3111 H   0  0  0  0  0  0  0  0  0  0  0  0
   -5.8183    1.5604    1.4951 H   0  0  0  0  0  0  0  0  0  0  0  0
   -5.5667   -1.2159   -1.8517 H   0  0  0  0  0  0  0  0  0  0  0  0
   -6.8059   -0.4245   -0.8220 H   0  0  0  0  0  0  0  0  0  0  0  0
   -5.8411    0.5509   -1.9823 H   0  0  0  0  0  0  0  0  0  0  0  0
  1  9  1  0  0  0  0
  1  8  1  0  0  0  0
  2  5  1  0  0  0  0
  2  1  1  0  0  0  0
  3 11  1  0  0  0  0
  3 12  1  0  0  0  0
  4  3  1  0  0  0  0
  5 14  1  0  0  0  0
  5  4  1  0  0  0  0
  6  5  1  0  0  0  0
  7 16  1  0  0  0  0
  7  6  1  0  0  0  0
  8 19  1  0  0  0  0
  8 18  1  0  0  0  0
  9 23  1  0  0  0  0
  9 21  1  0  0  0  0
 10 25  1  0  0  0  0
 10  1  1  0  0  0  0
 13  4  1  0  0  0  0
 15  6  1  0  0  0  0
 17  7  1  0  0  0  0
 20  8  1  0  0  0  0
 22  9  1  0  0  0  0
 24 10  1  0  0  0  0
 26 10  1  0  0  0  0
M  END
