7
 OpenBabel05122313113D

 38 39  0  0  1  0  0  0  0  0999 V2000
   -0.6974    2.6210   -0.4874 O   0  0  0  0  0  0  0  0  0  0  0  0
    2.1915   -1.7279   -1.2574 O   0  0  0  0  0  0  0  0  0  0  0  0
    3.2731   -2.2285    0.6860 O   0  0  0  0  0  0  0  0  0  0  0  0
    0.0969    0.4010   -0.5669 C   0  0  1  0  0  3  0  0  0  0  0  0
   -0.9108    1.3663   -0.9374 C   0  0  0  0  0  0  0  0  0  0  0  0
   -2.0491    0.9917   -1.7062 C   0  0  0  0  0  0  0  0  0  0  0  0
   -2.1776   -0.3572   -2.1448 C   0  0  0  0  0  3  0  0  0  0  0  0
   -1.1830   -1.3153   -1.8336 C   0  0  0  0  0  0  0  0  0  0  0  0
   -0.0764   -0.9559   -1.0044 C   0  0  0  0  0  0  0  0  0  0  0  0
    1.3752    0.9126    0.0267 C   0  0  0  0  0  0  0  0  0  0  0  0
    1.8438    0.6858    1.3464 C   0  0  0  0  0  0  0  0  0  0  0  0
    3.0970    1.2325    1.7062 C   0  0  0  0  0  0  0  0  0  0  0  0
    3.8699    1.9831    0.8157 C   0  0  0  0  0  0  0  0  0  0  0  0
    3.3963    2.2131   -0.4867 C   0  0  0  0  0  0  0  0  0  0  0  0
    2.1619    1.6794   -0.8663 C   0  0  0  0  0  0  0  0  0  0  0  0
   -1.7347    3.5847   -0.6103 C   0  0  0  0  0  0  0  0  0  0  0  0
    0.9310   -2.0186   -0.6316 C   0  0  0  0  0  0  0  0  0  0  0  0
    3.3006   -1.8281   -0.4606 C   0  0  0  0  0  0  0  0  0  0  0  0
    4.5214   -1.3413   -1.1945 C   0  0  0  0  0  0  0  0  0  0  0  0
    1.0870   -0.1110    2.3720 C   0  0  0  0  0  0  0  0  0  0  0  0
   -2.8393    1.7155   -1.9340 H   0  0  0  0  0  0  0  0  0  0  0  0
   -3.0632   -0.6536   -2.7243 H   0  0  0  0  0  0  0  0  0  0  0  0
   -1.3005   -2.3592   -2.1541 H   0  0  0  0  0  0  0  0  0  0  0  0
    3.4654    1.0553    2.7286 H   0  0  0  0  0  0  0  0  0  0  0  0
    4.8392    2.3931    1.1378 H   0  0  0  0  0  0  0  0  0  0  0  0
    3.9852    2.8055   -1.2032 H   0  0  0  0  0  0  0  0  0  0  0  0
    1.7854    1.8484   -1.8865 H   0  0  0  0  0  0  0  0  0  0  0  0
   -1.9668    3.8076   -1.6745 H   0  0  0  0  0  0  0  0  0  0  0  0
   -2.6566    3.2503   -0.0883 H   0  0  0  0  0  0  0  0  0  0  0  0
   -1.3562    4.5021   -0.1248 H   0  0  0  0  0  0  0  0  0  0  0  0
    1.0821   -2.0884    0.4620 H   0  0  0  0  0  0  0  0  0  0  0  0
    0.5795   -3.0081   -0.9880 H   0  0  0  0  0  0  0  0  0  0  0  0
    5.4274   -1.7801   -0.7413 H   0  0  0  0  0  0  0  0  0  0  0  0
    4.4628   -1.5700   -2.2745 H   0  0  0  0  0  0  0  0  0  0  0  0
    4.5644   -0.2381   -1.0806 H   0  0  0  0  0  0  0  0  0  0  0  0
   -0.0020   -0.0814    2.1940 H   0  0  0  0  0  0  0  0  0  0  0  0
    1.4050   -1.1753    2.3516 H   0  0  0  0  0  0  0  0  0  0  0  0
    1.2929    0.2664    3.3922 H   0  0  0  0  0  0  0  0  0  0  0  0
  2 17  1  0  0  0  0
  2 18  1  0  0  0  0
  4 10  1  6  0  0  0
  5  4  1  0  0  0  0
  5  1  1  0  0  0  0
  6  5  2  0  0  0  0
  7  8  1  0  0  0  0
  7  6  1  0  0  0  0
  8  9  2  0  0  0  0
  9 17  1  0  0  0  0
  9  4  1  0  0  0  0
 10 11  1  0  0  0  0
 11 12  2  0  0  0  0
 11 20  1  0  0  0  0
 12 24  1  0  0  0  0
 13 25  1  0  0  0  0
 13 12  1  0  0  0  0
 14 13  2  0  0  0  0
 15 14  1  0  0  0  0
 15 10  2  0  0  0  0
 16  1  1  0  0  0  0
 16 30  1  0  0  0  0
 16 29  1  0  0  0  0
 17 31  1  0  0  0  0
 18  3  2  0  0  0  0
 19 35  1  0  0  0  0
 19 33  1  0  0  0  0
 19 18  1  0  0  0  0
 20 38  1  0  0  0  0
 21  6  1  0  0  0  0
 22  7  1  0  0  0  0
 23  8  1  0  0  0  0
 26 14  1  0  0  0  0
 27 15  1  0  0  0  0
 28 16  1  0  0  0  0
 32 17  1  0  0  0  0
 34 19  1  0  0  0  0
 36 20  1  0  0  0  0
 37 20  1  0  0  0  0
M  END
