3
 OpenBabel05122313113D

 73 78  0  0  0  0  0  0  0  0999 V2000
    2.5482   -0.0658   -0.0108 P   0  0  0  0  0  0  0  0  0  0  0  0
   -2.4198   -0.1398   -0.0316 P   0  0  0  0  0  0  0  0  0  0  0  0
    0.8741    2.2308   -0.2480 C   0  0  0  0  0  3  0  0  0  0  0  0
   -0.4454    2.2346   -0.7650 C   0  0  0  0  0  3  0  0  0  0  0  0
   -1.6263    2.8924   -0.0700 C   0  0  0  0  0  0  0  0  0  0  0  0
    3.0745    1.3382   -1.0785 C   0  0  0  0  0  0  0  0  0  0  0  0
    2.0921    2.3565   -1.1166 C   0  0  0  0  0  0  0  0  0  0  0  0
    2.3129    3.4711   -1.9475 C   0  0  0  0  0  0  0  0  0  0  0  0
    3.4799    3.5580   -2.7259 C   0  0  0  0  0  0  0  0  0  0  0  0
    4.4482    2.5428   -2.6724 C   0  0  0  0  0  0  0  0  0  0  0  0
    4.2481    1.4270   -1.8419 C   0  0  0  0  0  0  0  0  0  0  0  0
    3.3419    0.2714    1.6188 C   0  0  0  0  0  0  0  0  0  0  0  0
    3.1098   -0.6454    2.6661 C   0  0  0  0  0  0  0  0  0  0  0  0
    3.6463   -0.4124    3.9385 C   0  0  0  0  0  0  0  0  0  0  0  0
    4.4098    0.7426    4.1816 C   0  0  0  0  0  0  0  0  0  0  0  0
    4.6358    1.6608    3.1457 C   0  0  0  0  0  0  0  0  0  0  0  0
    4.1068    1.4270    1.8651 C   0  0  0  0  0  0  0  0  0  0  0  0
    3.5178   -1.5106   -0.6233 C   0  0  0  0  0  0  0  0  0  0  0  0
    2.9256   -2.4124   -1.5292 C   0  0  0  0  0  0  0  0  0  0  0  0
    3.6662   -3.4887   -2.0400 C   0  0  0  0  0  0  0  0  0  0  0  0
    5.0011   -3.6761   -1.6486 C   0  0  0  0  0  0  0  0  0  0  0  0
    5.5951   -2.7845   -0.7406 C   0  0  0  0  0  0  0  0  0  0  0  0
    4.8580   -1.7071   -0.2270 C   0  0  0  0  0  0  0  0  0  0  0  0
   -3.3854    1.2007   -0.8624 C   0  0  0  0  0  0  0  0  0  0  0  0
   -2.9311    2.5424   -0.7537 C   0  0  0  0  0  0  0  0  0  0  0  0
   -3.6978    3.5580   -1.3565 C   0  0  0  0  0  0  0  0  0  0  0  0
   -4.8793    3.2712   -2.0557 C   0  0  0  0  0  0  0  0  0  0  0  0
   -5.3134    1.9434   -2.1697 C   0  0  0  0  0  0  0  0  0  0  0  0
   -4.5687    0.9161   -1.5720 C   0  0  0  0  0  0  0  0  0  0  0  0
   -3.1881   -1.6850   -0.7029 C   0  0  0  0  0  0  0  0  0  0  0  0
   -2.6161   -2.2998   -1.8343 C   0  0  0  0  0  0  0  0  0  0  0  0
   -3.1946   -3.4539   -2.3826 C   0  0  0  0  0  0  0  0  0  0  0  0
   -4.3450   -4.0111   -1.8026 C   0  0  0  0  0  0  0  0  0  0  0  0
   -4.9183   -3.4058   -0.6732 C   0  0  0  0  0  0  0  0  0  0  0  0
   -4.3460   -2.2475   -0.1257 C   0  0  0  0  0  0  0  0  0  0  0  0
   -3.1156   -0.1011    1.6853 C   0  0  0  0  0  0  0  0  0  0  0  0
   -4.0153    0.8899    2.1209 C   0  0  0  0  0  0  0  0  0  0  0  0
   -4.4724    0.8947    3.4498 C   0  0  0  0  0  0  0  0  0  0  0  0
   -4.0478   -0.0950    4.3473 C   0  0  0  0  0  0  0  0  0  0  0  0
   -3.1571   -1.0923    3.9138 C   0  0  0  0  0  0  0  0  0  0  0  0
   -2.6880   -1.0933    2.5946 C   0  0  0  0  0  0  0  0  0  0  0  0
    1.0139    2.6276    0.7765 H   0  0  0  0  0  0  0  0  0  0  0  0
   -0.5347    2.2249   -1.8661 H   0  0  0  0  0  0  0  0  0  0  0  0
   -1.5094    3.9992   -0.1068 H   0  0  0  0  0  0  0  0  0  0  0  0
   -1.6410    2.6165    1.0068 H   0  0  0  0  0  0  0  0  0  0  0  0
    1.5566    4.2702   -1.9885 H   0  0  0  0  0  0  0  0  0  0  0  0
    3.6305    4.4251   -3.3872 H   0  0  0  0  0  0  0  0  0  0  0  0
    5.3549    2.6104   -3.2926 H   0  0  0  0  0  0  0  0  0  0  0  0
    4.9878    0.6122   -1.8119 H   0  0  0  0  0  0  0  0  0  0  0  0
    2.4943   -1.5403    2.4809 H   0  0  0  0  0  0  0  0  0  0  0  0
    3.4599   -1.1324    4.7497 H   0  0  0  0  0  0  0  0  0  0  0  0
    4.8242    0.9284    5.1841 H   0  0  0  0  0  0  0  0  0  0  0  0
    5.2302    2.5684    3.3320 H   0  0  0  0  0  0  0  0  0  0  0  0
    4.2893    2.1462    1.0521 H   0  0  0  0  0  0  0  0  0  0  0  0
    1.8773   -2.2708   -1.8275 H   0  0  0  0  0  0  0  0  0  0  0  0
    3.1926   -4.1892   -2.7443 H   0  0  0  0  0  0  0  0  0  0  0  0
    5.5790   -4.5242   -2.0464 H   0  0  0  0  0  0  0  0  0  0  0  0
    6.6392   -2.9316   -0.4245 H   0  0  0  0  0  0  0  0  0  0  0  0
    5.3217   -1.0185    0.4957 H   0  0  0  0  0  0  0  0  0  0  0  0
   -3.3472    4.5995   -1.2773 H   0  0  0  0  0  0  0  0  0  0  0  0
   -5.4551    4.0868   -2.5191 H   0  0  0  0  0  0  0  0  0  0  0  0
   -6.2336    1.7020   -2.7229 H   0  0  0  0  0  0  0  0  0  0  0  0
   -4.9135   -0.1246   -1.6570 H   0  0  0  0  0  0  0  0  0  0  0  0
   -1.7078   -1.8754   -2.2833 H   0  0  0  0  0  0  0  0  0  0  0  0
   -2.7361   -3.9245   -3.2656 H   0  0  0  0  0  0  0  0  0  0  0  0
   -4.7930   -4.9219   -2.2283 H   0  0  0  0  0  0  0  0  0  0  0  0
   -5.8184   -3.8390   -0.2107 H   0  0  0  0  0  0  0  0  0  0  0  0
   -4.8000   -1.7786    0.7597 H   0  0  0  0  0  0  0  0  0  0  0  0
   -4.3653    1.6613    1.4192 H   0  0  0  0  0  0  0  0  0  0  0  0
   -5.1701    1.6791    3.7811 H   0  0  0  0  0  0  0  0  0  0  0  0
   -4.4078   -0.0901    5.3873 H   0  0  0  0  0  0  0  0  0  0  0  0
   -2.8178   -1.8723    4.6122 H   0  0  0  0  0  0  0  0  0  0  0  0
   -1.9773   -1.8670    2.2663 H   0  0  0  0  0  0  0  0  0  0  0  0
  1 12  1  0  0  0  0
  2 36  1  0  0  0  0
  3 42  1  0  0  0  0
  4  3  1  0  0  0  0
  4  5  1  0  0  0  0
  5 45  1  0  0  0  0
  6  1  1  0  0  0  0
  7  6  1  0  0  0  0
  7  3  1  0  0  0  0
  8  7  2  0  0  0  0
  9 10  2  0  0  0  0
  9  8  1  0  0  0  0
 10 11  1  0  0  0  0
 11 49  1  0  0  0  0
 11  6  2  0  0  0  0
 12 17  2  0  0  0  0
 12 13  1  0  0  0  0
 13 14  2  0  0  0  0
 14 15  1  0  0  0  0
 14 51  1  0  0  0  0
 15 52  1  0  0  0  0
 16 53  1  0  0  0  0
 16 15  2  0  0  0  0
 17 16  1  0  0  0  0
 18 23  1  0  0  0  0
 18  1  1  0  0  0  0
 19 18  2  0  0  0  0
 20 21  2  0  0  0  0
 20 19  1  0  0  0  0
 21 22  1  0  0  0  0
 22 58  1  0  0  0  0
 22 23  2  0  0  0  0
 23 59  1  0  0  0  0
 24 25  1  0  0  0  0
 24  2  1  0  0  0  0
 25  5  1  0  0  0  0
 26 60  1  0  0  0  0
 26 25  2  0  0  0  0
 27 26  1  0  0  0  0
 28 27  2  0  0  0  0
 28 29  1  0  0  0  0
 29 24  2  0  0  0  0
 30 35  1  0  0  0  0
 30  2  1  0  0  0  0
 31 30  2  0  0  0  0
 32 31  1  0  0  0  0
 32 33  2  0  0  0  0
 33 34  1  0  0  0  0
 34 67  1  0  0  0  0
 34 35  2  0  0  0  0
 35 68  1  0  0  0  0
 36 37  2  0  0  0  0
 36 41  1  0  0  0  0
 37 38  1  0  0  0  0
 38 70  1  0  0  0  0
 38 39  2  0  0  0  0
 39 71  1  0  0  0  0
 40 39  1  0  0  0  0
 40 72  1  0  0  0  0
 41 40  2  0  0  0  0
 43  4  1  0  0  0  0
 44  5  1  0  0  0  0
 46  8  1  0  0  0  0
 47  9  1  0  0  0  0
 48 10  1  0  0  0  0
 50 13  1  0  0  0  0
 54 17  1  0  0  0  0
 55 19  1  0  0  0  0
 56 20  1  0  0  0  0
 57 21  1  0  0  0  0
 61 27  1  0  0  0  0
 62 28  1  0  0  0  0
 63 29  1  0  0  0  0
 64 31  1  0  0  0  0
 65 32  1  0  0  0  0
 66 33  1  0  0  0  0
 69 37  1  0  0  0  0
 73 41  1  0  0  0  0
M  END
