6
 OpenBabel05122313113D

 25 25  0  0  1  0  0  0  0  0999 V2000
    1.2581   -1.7852    3.0223 O   0  0  0  0  0  0  0  0  0  0  0  0
    0.9140   -1.0592    2.1213 C   0  0  0  0  0  0  0  0  0  0  0  0
    1.5899    0.1329    1.8868 O   0  0  0  0  0  0  0  0  0  0  0  0
    1.1905    0.7992    0.7087 C   0  0  1  0  0  3  0  0  0  0  0  0
   -0.2424    1.0818    0.5561 C   0  0  2  0  0  3  0  0  0  0  0  0
   -1.0054   -0.1144    0.7700 C   0  0  2  0  0  3  0  0  0  0  0  0
   -0.2024   -1.2653    1.1683 C   0  0  0  0  0  3  0  0  0  0  0  0
    2.0708    1.7724    0.3738 O   0  0  0  0  0  0  0  0  0  0  0  0
    3.4213    1.3548    0.1646 C   0  0  0  0  0  0  0  0  0  0  0  0
   -0.8322    2.2108    0.1519 O   0  0  0  0  0  0  0  0  0  0  0  0
   -0.1027    3.4399    0.0532 C   0  0  0  0  0  0  0  0  0  0  0  0
   -2.4829   -0.3038    0.6034 C   0  0  0  0  0  0  0  0  0  0  0  0
   -3.0174   -1.3974    0.6658 O   0  0  0  0  0  0  0  0  0  0  0  0
   -3.1450    0.8494    0.3898 O   0  0  0  0  0  0  0  0  0  0  0  0
   -4.5615    0.7094    0.2139 C   0  0  0  0  0  0  0  0  0  0  0  0
   -0.7364   -2.2201    1.2686 H   0  0  0  0  0  0  0  0  0  0  0  0
    3.8008    0.7796    1.0323 H   0  0  0  0  0  0  0  0  0  0  0  0
    4.0155    2.2767    0.0334 H   0  0  0  0  0  0  0  0  0  0  0  0
    3.4925    0.7309   -0.7525 H   0  0  0  0  0  0  0  0  0  0  0  0
    0.5832    3.4272   -0.8161 H   0  0  0  0  0  0  0  0  0  0  0  0
    0.4782    3.6437    0.9730 H   0  0  0  0  0  0  0  0  0  0  0  0
   -0.8733    4.2196   -0.0871 H   0  0  0  0  0  0  0  0  0  0  0  0
   -5.0265    0.2550    1.1117 H   0  0  0  0  0  0  0  0  0  0  0  0
   -4.9485    1.7303    0.0500 H   0  0  0  0  0  0  0  0  0  0  0  0
   -4.7862    0.0626   -0.6578 H   0  0  0  0  0  0  0  0  0  0  0  0
  2  1  2  0  0  0  0
  3  2  1  0  0  0  0
  4  8  1  1  0  0  0
  4  3  1  0  0  0  0
  5 10  1  6  0  0  0
  5  4  1  0  0  0  0
  5  6  1  0  0  0  0
  6 12  1  6  0  0  0
  6  7  1  0  0  0  0
  7 16  1  0  0  0  0
  7  2  1  0  0  0  0
  9  8  1  0  0  0  0
  9 17  1  0  0  0  0
 11 10  1  0  0  0  0
 11 21  1  0  0  0  0
 12 13  2  0  0  0  0
 14 12  1  0  0  0  0
 15 14  1  0  0  0  0
 15 23  1  0  0  0  0
 18  9  1  0  0  0  0
 19  9  1  0  0  0  0
 20 11  1  0  0  0  0
 22 11  1  0  0  0  0
 24 15  1  0  0  0  0
 25 15  1  0  0  0  0
M  END
