10
 OpenBabel05122313113D

 51 52  0  0  1  0  0  0  0  0999 V2000
    3.5905   -0.8777   -1.5783 S   0  0  0  0  0  0  0  0  0  0  0  0
    0.4083    2.1845    0.5274 S   0  0  0  0  0  0  0  0  0  0  0  0
   -5.6843   -2.2484    1.0522 O   0  0  0  0  0  0  0  0  0  0  0  0
   -4.1931   -3.1837    2.4914 O   0  0  0  0  0  0  0  0  0  0  0  0
    3.9359    0.1137    0.8703 O   0  0  0  0  0  0  0  0  0  0  0  0
   -1.2524    3.1832   -1.3137 O   0  0  0  0  0  0  0  0  0  0  0  0
   -5.1895   -4.1523    2.8340 C   0  0  0  0  0  0  0  0  0  0  0  0
   -4.5732   -2.2715    1.5590 C   0  0  0  0  0  0  0  0  0  0  0  0
   -3.4613   -1.3384    1.2512 C   0  0  0  0  0  3  0  0  0  0  0  0
   -3.7536   -0.1524    0.4936 C   0  0  0  0  0  3  0  0  0  0  0  0
   -2.6522    0.5869   -0.0150 C   0  0  0  0  0  3  0  0  0  0  0  0
   -1.3332    0.0810    0.2497 C   0  0  0  0  0  3  0  0  0  0  0  0
   -0.1328    0.6873   -0.4320 C   0  0  2  0  0  0  0  0  0  0  0  0
    1.0513   -0.2788   -0.5673 C   0  0  0  0  0  0  0  0  0  0  0  0
    2.2216    0.3049   -1.3566 C   0  0  0  0  0  0  0  0  0  0  0  0
    4.3627   -0.6823    0.0465 C   0  0  0  0  0  0  0  0  0  0  0  0
    5.5560   -1.5503    0.2872 C   0  0  0  0  0  0  0  0  0  0  0  0
    5.9864   -2.5395   -0.6213 C   0  0  0  0  0  0  0  0  0  0  0  0
    7.1145   -3.3176   -0.3315 C   0  0  0  0  0  0  0  0  0  0  0  0
    7.8206   -3.1156    0.8662 C   0  0  0  0  0  0  0  0  0  0  0  0
    7.3946   -2.1337    1.7768 C   0  0  0  0  0  0  0  0  0  0  0  0
    6.2670   -1.3556    1.4906 C   0  0  0  0  0  0  0  0  0  0  0  0
   -0.5223    3.4497   -0.3672 C   0  0  0  0  0  0  0  0  0  0  0  0
   -0.3255    4.8425    0.1374 C   0  0  0  0  0  0  0  0  0  0  0  0
    0.5098    5.1586    1.2296 C   0  0  0  0  0  0  0  0  0  0  0  0
    0.6469    6.4881    1.6478 C   0  0  0  0  0  0  0  0  0  0  0  0
   -0.0467    7.5117    0.9804 C   0  0  0  0  0  0  0  0  0  0  0  0
   -0.8798    7.2032   -0.1084 C   0  0  0  0  0  0  0  0  0  0  0  0
   -1.0195    5.8757   -0.5287 C   0  0  0  0  0  0  0  0  0  0  0  0
   -5.5138   -4.7190    1.9376 H   0  0  0  0  0  0  0  0  0  0  0  0
   -6.0832   -3.6633    3.2723 H   0  0  0  0  0  0  0  0  0  0  0  0
   -4.7205   -4.8288    3.5704 H   0  0  0  0  0  0  0  0  0  0  0  0
   -2.6344   -1.3546    1.9767 H   0  0  0  0  0  0  0  0  0  0  0  0
   -4.7927    0.0948    0.2283 H   0  0  0  0  0  0  0  0  0  0  0  0
   -2.8017    1.4385   -0.6965 H   0  0  0  0  0  0  0  0  0  0  0  0
   -1.1171   -0.3258    1.2524 H   0  0  0  0  0  0  0  0  0  0  0  0
   -0.4242    1.0994   -1.4206 H   0  0  0  0  0  0  0  0  0  0  0  0
    0.6805   -1.1929   -1.0741 H   0  0  0  0  0  0  0  0  0  0  0  0
    1.4025   -0.5924    0.4378 H   0  0  0  0  0  0  0  0  0  0  0  0
    2.6380    1.1958   -0.8454 H   0  0  0  0  0  0  0  0  0  0  0  0
    1.9141    0.5941   -2.3818 H   0  0  0  0  0  0  0  0  0  0  0  0
    5.4308   -2.7078   -1.5566 H   0  0  0  0  0  0  0  0  0  0  0  0
    7.4440   -4.0893   -1.0433 H   0  0  0  0  0  0  0  0  0  0  0  0
    8.7066   -3.7287    1.0916 H   0  0  0  0  0  0  0  0  0  0  0  0
    7.9464   -1.9760    2.7159 H   0  0  0  0  0  0  0  0  0  0  0  0
    5.9090   -0.5813    2.1847 H   0  0  0  0  0  0  0  0  0  0  0  0
    1.0565    4.3609    1.7556 H   0  0  0  0  0  0  0  0  0  0  0  0
    1.3000    6.7281    2.5000 H   0  0  0  0  0  0  0  0  0  0  0  0
    0.0635    8.5557    1.3112 H   0  0  0  0  0  0  0  0  0  0  0  0
   -1.4230    8.0044   -0.6317 H   0  0  0  0  0  0  0  0  0  0  0  0
   -1.6640    5.6052   -1.3776 H   0  0  0  0  0  0  0  0  0  0  0  0
  1 15  1  0  0  0  0
  1 16  1  0  0  0  0
  3  8  2  0  0  0  0
  4  7  1  0  0  0  0
  6 23  2  0  0  0  0
  7 31  1  0  0  0  0
  7 32  1  0  0  0  0
  8  4  1  0  0  0  0
  9  8  1  0  0  0  0
  9 33  1  0  0  0  0
 10  9  1  0  0  0  0
 11 12  1  0  0  0  0
 11 10  1  0  0  0  0
 12 36  1  0  0  0  0
 13 37  1  6  0  0  0
 13 12  1  0  0  0  0
 13  2  1  0  0  0  0
 14 13  1  0  0  0  0
 14 39  1  0  0  0  0
 15 40  1  0  0  0  0
 15 14  1  0  0  0  0
 16 17  1  0  0  0  0
 16  5  2  0  0  0  0
 17 22  1  0  0  0  0
 18 19  1  0  0  0  0
 18 17  2  0  0  0  0
 19 20  2  0  0  0  0
 20 44  1  0  0  0  0
 20 21  1  0  0  0  0
 21 45  1  0  0  0  0
 22 21  2  0  0  0  0
 22 46  1  0  0  0  0
 23 24  1  0  0  0  0
 23  2  1  0  0  0  0
 24 25  1  0  0  0  0
 25 26  2  0  0  0  0
 25 47  1  0  0  0  0
 26 48  1  0  0  0  0
 27 49  1  0  0  0  0
 27 26  1  0  0  0  0
 28 27  2  0  0  0  0
 29 28  1  0  0  0  0
 29 24  2  0  0  0  0
 30  7  1  0  0  0  0
 34 10  1  0  0  0  0
 35 11  1  0  0  0  0
 38 14  1  0  0  0  0
 41 15  1  0  0  0  0
 42 18  1  0  0  0  0
 43 19  1  0  0  0  0
 50 28  1  0  0  0  0
 51 29  1  0  0  0  0
M  END
