1
 OpenBabel05122313113D

 40 42  0  0  0  0  0  0  0  0999 V2000
   -1.4307    0.6101   -0.0778 C   0  0  0  0  0  3  0  0  0  0  0  0
   -1.2107    0.7387   -1.4803 C   0  0  0  0  0  3  0  0  0  0  0  0
   -1.5749   -0.7535    0.4228 C   0  0  0  0  0  3  0  0  0  0  0  0
   -0.7864    1.5221    0.8298 C   0  0  0  0  0  3  0  0  0  0  0  0
   -1.8692   -0.0018   -2.5622 C   0  0  0  0  0  0  0  0  0  0  0  0
   -1.3652    0.1475   -3.8807 C   0  0  0  0  0  0  0  0  0  0  0  0
   -1.9436   -0.5201   -4.9669 C   0  0  0  0  0  0  0  0  0  0  0  0
   -3.0563   -1.3543   -4.7731 C   0  0  0  0  0  0  0  0  0  0  0  0
   -3.5921   -1.4906   -3.4815 C   0  0  0  0  0  0  0  0  0  0  0  0
   -3.0142   -0.8235   -2.3935 C   0  0  0  0  0  0  0  0  0  0  0  0
   -0.5719    2.9689    0.6486 C   0  0  0  0  0  0  0  0  0  0  0  0
   -1.2326    3.7457   -0.3345 C   0  0  0  0  0  0  0  0  0  0  0  0
   -1.0041    5.1250   -0.4415 C   0  0  0  0  0  0  0  0  0  0  0  0
   -0.1167    5.7735    0.4314 C   0  0  0  0  0  0  0  0  0  0  0  0
    0.5290    5.0247    1.4296 C   0  0  0  0  0  0  0  0  0  0  0  0
    0.3004    3.6481    1.5358 C   0  0  0  0  0  0  0  0  0  0  0  0
   -2.2104   -1.1832    1.6826 C   0  0  0  0  0  0  0  0  0  0  0  0
   -2.3328   -2.5742    1.9384 C   0  0  0  0  0  0  0  0  0  0  0  0
   -2.9202   -3.0577    3.1140 C   0  0  0  0  0  0  0  0  0  0  0  0
   -3.4211   -2.1638    4.0745 C   0  0  0  0  0  0  0  0  0  0  0  0
   -3.3469   -0.7843    3.8234 C   0  0  0  0  0  0  0  0  0  0  0  0
   -2.7592   -0.2992    2.6465 C   0  0  0  0  0  0  0  0  0  0  0  0
    0.8110    3.0717    2.3235 H   0  0  0  0  0  0  0  0  0  0  0  0
    1.2166    5.5195    2.1329 H   0  0  0  0  0  0  0  0  0  0  0  0
    0.0623    6.8556    0.3426 H   0  0  0  0  0  0  0  0  0  0  0  0
   -1.5371    5.7020   -1.2130 H   0  0  0  0  0  0  0  0  0  0  0  0
   -2.7494    0.7831    2.4584 H   0  0  0  0  0  0  0  0  0  0  0  0
   -3.7653   -0.0702    4.5496 H   0  0  0  0  0  0  0  0  0  0  0  0
   -3.8820   -2.5392    5.0002 H   0  0  0  0  0  0  0  0  0  0  0  0
   -2.9958   -4.1438    3.2776 H   0  0  0  0  0  0  0  0  0  0  0  0
   -1.9705   -3.2868    1.1795 H   0  0  0  0  0  0  0  0  0  0  0  0
   -3.4796   -0.9109   -1.4017 H   0  0  0  0  0  0  0  0  0  0  0  0
   -4.4849   -2.1144   -3.3198 H   0  0  0  0  0  0  0  0  0  0  0  0
   -1.5243   -0.3845   -5.9758 H   0  0  0  0  0  0  0  0  0  0  0  0
   -0.5035    0.8136   -4.0461 H   0  0  0  0  0  0  0  0  0  0  0  0
   -3.5138   -1.8805   -5.6244 H   0  0  0  0  0  0  0  0  0  0  0  0
   -1.9586    3.2661   -1.0056 H   0  0  0  0  0  0  0  0  0  0  0  0
   -1.7079   -1.5048   -0.3763 H   0  0  0  0  0  0  0  0  0  0  0  0
   -0.8125    1.2211    1.8870 H   0  0  0  0  0  0  0  0  0  0  0  0
   -0.7442    1.6724   -1.8153 H   0  0  0  0  0  0  0  0  0  0  0  0
  1  3  1  0  0  0  0
  1  4  1  0  0  0  0
  2  1  1  0  0  0  0
  3 17  1  0  0  0  0
  4 39  1  0  0  0  0
  5 10  1  0  0  0  0
  5  2  1  0  0  0  0
  6  5  2  0  0  0  0
  7  8  2  0  0  0  0
  7  6  1  0  0  0  0
  8  9  1  0  0  0  0
  9 33  1  0  0  0  0
  9 10  2  0  0  0  0
 10 32  1  0  0  0  0
 11  4  1  0  0  0  0
 11 16  1  0  0  0  0
 12 11  2  0  0  0  0
 13 12  1  0  0  0  0
 13 14  2  0  0  0  0
 14 15  1  0  0  0  0
 15 16  2  0  0  0  0
 15 24  1  0  0  0  0
 16 23  1  0  0  0  0
 17 18  2  0  0  0  0
 17 22  1  0  0  0  0
 18 19  1  0  0  0  0
 19 30  1  0  0  0  0
 19 20  2  0  0  0  0
 20 29  1  0  0  0  0
 21 20  1  0  0  0  0
 21 28  1  0  0  0  0
 22 21  2  0  0  0  0
 25 14  1  0  0  0  0
 26 13  1  0  0  0  0
 27 22  1  0  0  0  0
 31 18  1  0  0  0  0
 34  7  1  0  0  0  0
 35  6  1  0  0  0  0
 36  8  1  0  0  0  0
 37 12  1  0  0  0  0
 38  3  1  0  0  0  0
 40  2  1  0  0  0  0
M  END
