3
 OpenBabel05122313113D

 13 13  0  0  0  0  0  0  0  0999 V2000
   -7.3971   -1.4825   -0.3210 Cl  0  0  0  0  0  0  0  0  0  0  0  0
   -0.9457   -1.4009    1.4197 O   0  0  0  0  0  0  0  0  0  0  0  0
   -1.3716   -1.0842    0.2930 C   0  0  0  0  0  3  0  0  0  0  0  0
   -2.8655   -1.2083    0.0894 C   0  0  0  0  0  0  0  0  0  0  0  0
   -3.6929   -1.2794    1.2321 C   0  0  0  0  0  0  0  0  0  0  0  0
   -5.0827   -1.3567    1.1181 C   0  0  0  0  0  0  0  0  0  0  0  0
   -5.6598   -1.3961   -0.1640 C   0  0  0  0  0  0  0  0  0  0  0  0
   -4.8600   -1.3718   -1.3180 C   0  0  0  0  0  0  0  0  0  0  0  0
   -3.4699   -1.2696   -1.1806 C   0  0  0  0  0  0  0  0  0  0  0  0
   -3.2028   -1.2677    2.2167 H   0  0  0  0  0  0  0  0  0  0  0  0
   -5.7296   -1.3867    2.0067 H   0  0  0  0  0  0  0  0  0  0  0  0
   -5.3298   -1.4267   -2.3099 H   0  0  0  0  0  0  0  0  0  0  0  0
   -2.8387   -1.2551   -2.0794 H   0  0  0  0  0  0  0  0  0  0  0  0
  1  7  1  0  0  0  0
  3  2  2  0  0  0  0
  4  3  1  0  0  0  0
  4  5  1  0  0  0  0
  5 10  1  0  0  0  0
  6  5  2  0  0  0  0
  6 11  1  0  0  0  0
  7  6  1  0  0  0  0
  8  9  1  0  0  0  0
  8  7  2  0  0  0  0
  9  4  2  0  0  0  0
 12  8  1  0  0  0  0
 13  9  1  0  0  0  0
M  END
