5
 OpenBabel05122313113D

 33 33  0  0  0  0  0  0  0  0999 V2000
   -1.8464   -1.3747   -0.7028 N   0  0  0  0  0  0  0  0  0  0  0  0
   -3.5321   -0.0895   -0.1601 N   0  0  0  0  0  0  0  0  0  0  0  0
   -3.1705   -1.1589   -0.8965 C   0  0  0  0  0  3  0  0  0  0  0  0
   -3.8384   -1.7466   -1.5249 H   0  0  0  0  0  0  0  0  0  0  0  0
   -1.2914   -0.4220    0.1871 C   0  0  0  0  0  3  0  0  0  0  0  0
   -2.4017    0.3634    0.5073 C   0  0  0  0  0  0  0  0  0  0  0  0
   -2.4463    1.2223    1.1816 H   0  0  0  0  0  0  0  0  0  0  0  0
   -1.0827   -2.4900   -1.3407 C   0  0  0  0  0  0  0  0  0  0  0  0
    0.0055   -1.8545   -2.2202 C   0  0  0  0  0  0  0  0  0  0  0  0
   -0.4555   -1.2752   -3.0459 H   0  0  0  0  0  0  0  0  0  0  0  0
    0.6497   -2.6405   -2.6617 H   0  0  0  0  0  0  0  0  0  0  0  0
    0.6270   -1.1679   -1.6141 H   0  0  0  0  0  0  0  0  0  0  0  0
   -0.4966   -3.3446   -0.2062 C   0  0  0  0  0  0  0  0  0  0  0  0
    0.0806   -2.6991    0.4865 H   0  0  0  0  0  0  0  0  0  0  0  0
    0.1633   -4.1329   -0.6185 H   0  0  0  0  0  0  0  0  0  0  0  0
   -1.3111   -3.8299    0.3684 H   0  0  0  0  0  0  0  0  0  0  0  0
   -2.0113   -3.3488   -2.2100 C   0  0  0  0  0  0  0  0  0  0  0  0
   -2.8212   -3.8198   -1.6168 H   0  0  0  0  0  0  0  0  0  0  0  0
   -1.4138   -4.1655   -2.6584 H   0  0  0  0  0  0  0  0  0  0  0  0
   -2.4588   -2.7711   -3.0445 H   0  0  0  0  0  0  0  0  0  0  0  0
   -4.8869    0.5215   -0.0655 C   0  0  0  0  0  0  0  0  0  0  0  0
   -4.7850    1.9787   -0.5514 C   0  0  0  0  0  0  0  0  0  0  0  0
   -4.0818    2.5634    0.0723 H   0  0  0  0  0  0  0  0  0  0  0  0
   -5.7782    2.4665   -0.5000 H   0  0  0  0  0  0  0  0  0  0  0  0
   -4.4271    2.0168   -1.5995 H   0  0  0  0  0  0  0  0  0  0  0  0
   -5.3372    0.4613    1.4048 C   0  0  0  0  0  0  0  0  0  0  0  0
   -5.3847   -0.5882    1.7563 H   0  0  0  0  0  0  0  0  0  0  0  0
   -6.3421    0.9149    1.5119 H   0  0  0  0  0  0  0  0  0  0  0  0
   -4.6386    1.0099    2.0649 H   0  0  0  0  0  0  0  0  0  0  0  0
   -5.8752   -0.2532   -0.9460 C   0  0  0  0  0  0  0  0  0  0  0  0
   -5.5803   -0.2285   -2.0139 H   0  0  0  0  0  0  0  0  0  0  0  0
   -6.8750    0.2146   -0.8634 H   0  0  0  0  0  0  0  0  0  0  0  0
   -5.9716   -1.3087   -0.6227 H   0  0  0  0  0  0  0  0  0  0  0  0
  1  5  1  0  0  0  0
  2 21  1  0  0  0  0
  2  6  1  0  0  0  0
  3  1  1  0  0  0  0
  3  2  1  0  0  0  0
  4  3  1  0  0  0  0
  5  6  2  0  0  0  0
  6  7  1  0  0  0  0
  8  1  1  0  0  0  0
  8 13  1  0  0  0  0
  9 12  1  0  0  0  0
  9  8  1  0  0  0  0
 10  9  1  0  0  0  0
 11  9  1  0  0  0  0
 13 16  1  0  0  0  0
 13 14  1  0  0  0  0
 15 13  1  0  0  0  0
 17 18  1  0  0  0  0
 17  8  1  0  0  0  0
 19 17  1  0  0  0  0
 20 17  1  0  0  0  0
 21 26  1  0  0  0  0
 22 24  1  0  0  0  0
 22 21  1  0  0  0  0
 22 23  1  0  0  0  0
 25 22  1  0  0  0  0
 26 28  1  0  0  0  0
 26 27  1  0  0  0  0
 26 29  1  0  0  0  0
 30 32  1  0  0  0  0
 30 33  1  0  0  0  0
 30 21  1  0  0  0  0
 31 30  1  0  0  0  0
M  END
