3
 OpenBabel05122313113D

 25 24  0  0  1  0  0  0  0  0999 V2000
    5.8504   -1.1446   -0.6174 I   0  0  0  0  0  0  0  0  0  0  0  0
    0.8818   -0.3147   -2.7399 C   0  0  0  0  0  0  0  0  0  0  0  0
    0.4617    0.4829   -1.5619 C   0  0  0  0  0  2  0  0  0  0  0  0
    0.6423    1.6799   -1.0025 C   0  0  0  0  0  2  0  0  0  0  0  0
    1.5608    2.8560   -1.0689 C   0  0  2  0  0  0  0  0  0  0  0  0
    2.1426    3.0522   -2.4773 C   0  0  0  0  0  0  0  0  0  0  0  0
    2.6563    2.6672    0.0179 C   0  0  0  0  0  0  0  0  0  0  0  0
    3.4364    1.3573   -0.1019 C   0  0  0  0  0  0  0  0  0  0  0  0
    4.4394    1.1286    1.0292 C   0  0  0  0  0  0  0  0  0  0  0  0
    4.8861   -0.3131    1.1801 C   0  0  0  0  0  0  0  0  0  0  0  0
    0.3504   -1.2831   -2.8088 H   0  0  0  0  0  0  0  0  0  0  0  0
    1.9733   -0.5183   -2.7021 H   0  0  0  0  0  0  0  0  0  0  0  0
    0.6949    0.2596   -3.6721 H   0  0  0  0  0  0  0  0  0  0  0  0
    0.9967    3.7702   -0.7848 H   0  0  0  0  0  0  0  0  0  0  0  0
    2.8186    3.9310   -2.4989 H   0  0  0  0  0  0  0  0  0  0  0  0
    1.3417    3.2247   -3.2243 H   0  0  0  0  0  0  0  0  0  0  0  0
    2.7233    2.1686   -2.8083 H   0  0  0  0  0  0  0  0  0  0  0  0
    2.1644    2.7005    1.0129 H   0  0  0  0  0  0  0  0  0  0  0  0
    3.3440    3.5399   -0.0301 H   0  0  0  0  0  0  0  0  0  0  0  0
    2.7110    0.5164   -0.0839 H   0  0  0  0  0  0  0  0  0  0  0  0
    3.9653    1.2954   -1.0765 H   0  0  0  0  0  0  0  0  0  0  0  0
    3.9487    1.3835    1.9979 H   0  0  0  0  0  0  0  0  0  0  0  0
    5.3162    1.8042    0.9302 H   0  0  0  0  0  0  0  0  0  0  0  0
    5.6421   -0.4522    1.9735 H   0  0  0  0  0  0  0  0  0  0  0  0
    4.0285   -0.9897    1.3583 H   0  0  0  0  0  0  0  0  0  0  0  0
  1 10  1  0  0  0  0
  2 12  1  0  0  0  0
  2  3  1  0  0  0  0
  3  4  1  0  0  0  0
  5  4  1  0  0  0  0
  5 14  1  1  0  0  0
  5  7  1  0  0  0  0
  6  5  1  0  0  0  0
  7 18  1  0  0  0  0
  8 20  1  0  0  0  0
  8  7  1  0  0  0  0
  8  9  1  0  0  0  0
  9 10  1  0  0  0  0
  9 22  1  0  0  0  0
 10 25  1  0  0  0  0
 10 24  1  0  0  0  0
 11  2  1  0  0  0  0
 13  2  1  0  0  0  0
 15  6  1  0  0  0  0
 16  6  1  0  0  0  0
 17  6  1  0  0  0  0
 19  7  1  0  0  0  0
 21  8  1  0  0  0  0
 23  9  1  0  0  0  0
M  END
