4
 OpenBabel05122313113D

 35 36  0  0  0  0  0  0  0  0999 V2000
    1.6292    1.9698    0.9876 C   0  0  0  0  0  0  0  0  0  0  0  0
    2.2142    2.1054    1.9040 H   0  0  0  0  0  0  0  0  0  0  0  0
    2.0114    1.1485   -0.1135 C   0  0  0  0  0  0  0  0  0  0  0  0
    0.9517    1.1866   -1.0756 C   0  0  0  0  0  3  0  0  0  0  0  0
    3.2986    0.3796   -0.2468 C   0  0  0  0  0  0  0  0  0  0  0  0
    3.8363    0.4095    0.7221 H   0  0  0  0  0  0  0  0  0  0  0  0
    3.0861   -0.6952   -0.4327 H   0  0  0  0  0  0  0  0  0  0  0  0
    4.1991    0.9143   -1.3717 C   0  0  0  0  0  0  0  0  0  0  0  0
    4.4521    1.9788   -1.1791 H   0  0  0  0  0  0  0  0  0  0  0  0
    3.6371    0.9068   -2.3321 H   0  0  0  0  0  0  0  0  0  0  0  0
    5.4906    0.0954   -1.5302 C   0  0  0  0  0  0  0  0  0  0  0  0
    6.0658    0.1125   -0.5794 H   0  0  0  0  0  0  0  0  0  0  0  0
    5.2070   -0.9693   -1.7023 H   0  0  0  0  0  0  0  0  0  0  0  0
    6.3566    0.5692   -2.6620 C   0  0  0  0  0  0  0  0  0  0  0  0
    5.8912    0.5428   -3.6660 H   0  0  0  0  0  0  0  0  0  0  0  0
    7.6138    1.0295   -2.5436 C   0  0  0  0  0  0  0  0  0  0  0  0
    8.1161    1.0786   -1.5626 H   0  0  0  0  0  0  0  0  0  0  0  0
    8.1896    1.3699   -3.4183 H   0  0  0  0  0  0  0  0  0  0  0  0
    0.9661    0.7039   -2.0576 H   0  0  0  0  0  0  0  0  0  0  0  0
   -0.0580    2.1046   -0.6116 C   0  0  0  0  0  0  0  0  0  0  0  0
    0.3789    2.6028    0.6797 C   0  0  0  0  0  0  0  0  0  0  0  0
   -0.3959    3.5644    1.4037 C   0  0  0  0  0  0  0  0  0  0  0  0
   -1.5705    3.9949    0.8006 C   0  0  0  0  0  0  0  0  0  0  0  0
   -1.9962    3.5180   -0.4729 C   0  0  0  0  0  0  0  0  0  0  0  0
   -1.2743    2.5807   -1.2063 C   0  0  0  0  0  0  0  0  0  0  0  0
   -1.6913    2.1443   -2.5841 C   0  0  0  0  0  0  0  0  0  0  0  0
   -1.9460    1.0646   -2.6238 H   0  0  0  0  0  0  0  0  0  0  0  0
   -0.8762    2.3052   -3.3213 H   0  0  0  0  0  0  0  0  0  0  0  0
   -2.5806    2.7051   -2.9304 H   0  0  0  0  0  0  0  0  0  0  0  0
   -2.9251    3.9244   -0.9039 H   0  0  0  0  0  0  0  0  0  0  0  0
   -2.1966    4.7351    1.3227 H   0  0  0  0  0  0  0  0  0  0  0  0
    0.0539    4.0259    2.7566 C   0  0  0  0  0  0  0  0  0  0  0  0
    1.0929    4.4163    2.7317 H   0  0  0  0  0  0  0  0  0  0  0  0
    0.0415    3.1717    3.4677 H   0  0  0  0  0  0  0  0  0  0  0  0
   -0.6066    4.8171    3.1593 H   0  0  0  0  0  0  0  0  0  0  0  0
  1  2  1  0  0  0  0
  3  1  2  0  0  0  0
  4 20  1  0  0  0  0
  4  3  1  0  0  0  0
  5  3  1  0  0  0  0
  5  6  1  0  0  0  0
  7  5  1  0  0  0  0
  8  9  1  0  0  0  0
  8  5  1  0  0  0  0
 10  8  1  0  0  0  0
 11  8  1  0  0  0  0
 11 12  1  0  0  0  0
 13 11  1  0  0  0  0
 14 16  2  0  0  0  0
 14 11  1  0  0  0  0
 15 14  1  0  0  0  0
 16 17  1  0  0  0  0
 18 16  1  0  0  0  0
 19  4  1  0  0  0  0
 20 21  1  0  0  0  0
 21  1  1  0  0  0  0
 21 22  2  0  0  0  0
 22 32  1  0  0  0  0
 23 31  1  0  0  0  0
 23 22  1  0  0  0  0
 24 23  2  0  0  0  0
 25 20  2  0  0  0  0
 25 24  1  0  0  0  0
 26 25  1  0  0  0  0
 27 26  1  0  0  0  0
 28 26  1  0  0  0  0
 29 26  1  0  0  0  0
 30 24  1  0  0  0  0
 32 35  1  0  0  0  0
 32 34  1  0  0  0  0
 33 32  1  0  0  0  0
M  END
