4
 OpenBabel05122313113D

 22 23  0  0  1  0  0  0  0  0999 V2000
    0.3824    3.1698   -0.7887 O   0  0  0  0  0  0  0  0  0  0  0  0
    4.9889   -1.4118    0.1403 O   0  0  0  0  0  0  0  0  0  0  0  0
    0.4326   -0.3614   -1.4884 C   0  0  0  0  0  3  0  0  0  0  0  0
   -0.2492    0.9104   -1.5327 C   0  0  1  0  0  3  0  0  0  0  0  0
   -1.6158    1.0299   -1.9181 C   0  0  0  0  0  3  0  0  0  0  0  0
    0.6564    1.9842   -0.9449 C   0  0  0  0  0  0  0  0  0  0  0  0
    1.9171    1.2729   -0.6044 C   0  0  0  0  0  0  0  0  0  0  0  0
    1.7807   -0.1107   -0.9094 C   0  0  0  0  0  0  0  0  0  0  0  0
    2.8235   -0.9943   -0.6527 C   0  0  0  0  0  0  0  0  0  0  0  0
    4.0208   -0.4884   -0.0803 C   0  0  0  0  0  0  0  0  0  0  0  0
    4.1568    0.8881    0.2235 C   0  0  0  0  0  0  0  0  0  0  0  0
    3.0950    1.7697   -0.0433 C   0  0  0  0  0  0  0  0  0  0  0  0
    6.2196   -0.9941    0.7051 C   0  0  0  0  0  0  0  0  0  0  0  0
    0.2841   -1.1419   -2.2488 H   0  0  0  0  0  0  0  0  0  0  0  0
   -2.0851    2.0176   -1.7732 H   0  0  0  0  0  0  0  0  0  0  0  0
   -1.9951    0.4485   -2.7706 H   0  0  0  0  0  0  0  0  0  0  0  0
    2.7515   -2.0701   -0.8673 H   0  0  0  0  0  0  0  0  0  0  0  0
    5.0871    1.2754    0.6585 H   0  0  0  0  0  0  0  0  0  0  0  0
    3.1858    2.8450    0.1754 H   0  0  0  0  0  0  0  0  0  0  0  0
    6.8455   -1.9010    0.7922 H   0  0  0  0  0  0  0  0  0  0  0  0
    6.7406   -0.2541    0.0579 H   0  0  0  0  0  0  0  0  0  0  0  0
    6.0806   -0.5506    1.7161 H   0  0  0  0  0  0  0  0  0  0  0  0
  2 13  1  0  0  0  0
  3  8  1  0  0  0  0
  4  5  1  1  0  0  0
  4  3  1  0  0  0  0
  4  6  1  0  0  0  0
  5 15  1  0  0  0  0
  6  1  2  0  0  0  0
  6  7  1  0  0  0  0
  7 12  1  0  0  0  0
  8  9  1  0  0  0  0
  8  7  2  0  0  0  0
  9 10  2  0  0  0  0
 10  2  1  0  0  0  0
 10 11  1  0  0  0  0
 11 18  1  0  0  0  0
 12 19  1  0  0  0  0
 12 11  2  0  0  0  0
 13 20  1  0  0  0  0
 13 22  1  0  0  0  0
 14  3  1  0  0  0  0
 16  5  1  0  0  0  0
 17  9  1  0  0  0  0
 21 13  1  0  0  0  0
M  END
