3
 OpenBabel05122313113D

 29 29  0  0  0  0  0  0  0  0999 V2000
    6.2775    0.0006    0.0312 Br  0  0  0  0  0  0  0  0  0  0  0  0
   -2.0256   -0.0012    2.0220 N   0  0  0  0  0  0  0  0  0  0  0  0
   -0.7937   -0.0008    1.3975 C   0  0  0  0  0  2  0  0  0  0  0  0
    0.4083   -0.0011    2.0734 C   0  0  0  0  0  3  0  0  0  0  0  0
    1.7618   -0.0006    1.5417 C   0  0  0  0  0  0  0  0  0  0  0  0
    2.0926    0.0005    0.1602 C   0  0  0  0  0  0  0  0  0  0  0  0
    3.4158    0.0009   -0.2919 C   0  0  0  0  0  0  0  0  0  0  0  0
    4.4676    0.0001    0.6380 C   0  0  0  0  0  0  0  0  0  0  0  0
    4.1892   -0.0011    2.0152 C   0  0  0  0  0  0  0  0  0  0  0  0
    2.8600   -0.0014    2.4486 C   0  0  0  0  0  0  0  0  0  0  0  0
   -2.3890   -0.0022    3.4557 C   0  0  0  0  0  0  0  0  0  0  0  0
   -1.8768    1.2705    4.1622 C   0  0  0  0  0  0  0  0  0  0  0  0
   -1.8766   -1.2757    4.1605 C   0  0  0  0  0  0  0  0  0  0  0  0
   -3.9270   -0.0023    3.4989 C   0  0  0  0  0  0  0  0  0  0  0  0
   -2.8223   -0.0013    1.3893 H   0  0  0  0  0  0  0  0  0  0  0  0
    0.3817   -0.0018    3.1754 H   0  0  0  0  0  0  0  0  0  0  0  0
    1.2698    0.0011   -0.5779 H   0  0  0  0  0  0  0  0  0  0  0  0
    3.6315    0.0018   -1.3706 H   0  0  0  0  0  0  0  0  0  0  0  0
    5.0130   -0.0017    2.7434 H   0  0  0  0  0  0  0  0  0  0  0  0
    2.6540   -0.0023    3.5314 H   0  0  0  0  0  0  0  0  0  0  0  0
   -2.3293    2.1717    3.7012 H   0  0  0  0  0  0  0  0  0  0  0  0
   -0.7779    1.3707    4.0924 H   0  0  0  0  0  0  0  0  0  0  0  0
   -2.1546    1.2582    5.2354 H   0  0  0  0  0  0  0  0  0  0  0  0
   -2.3289   -2.1764    3.6982 H   0  0  0  0  0  0  0  0  0  0  0  0
   -2.1547   -1.2650    5.2336 H   0  0  0  0  0  0  0  0  0  0  0  0
   -0.7777   -1.3756    4.0908 H   0  0  0  0  0  0  0  0  0  0  0  0
   -4.3374   -0.9017    2.9950 H   0  0  0  0  0  0  0  0  0  0  0  0
   -4.3375    0.8977    2.9961 H   0  0  0  0  0  0  0  0  0  0  0  0
   -4.2867   -0.0030    4.5459 H   0  0  0  0  0  0  0  0  0  0  0  0
  1  8  1  0  0  0  0
  2 11  1  0  0  0  0
  3  2  1  0  0  0  0
  3  4  1  0  0  0  0
  4 16  1  0  0  0  0
  5  4  1  0  0  0  0
  5 10  1  0  0  0  0
  6  5  2  0  0  0  0
  7  6  1  0  0  0  0
  7  8  2  0  0  0  0
  8  9  1  0  0  0  0
  9 10  2  0  0  0  0
  9 19  1  0  0  0  0
 10 20  1  0  0  0  0
 11 14  1  0  0  0  0
 11 13  1  0  0  0  0
 11 12  1  0  0  0  0
 12 23  1  0  0  0  0
 13 25  1  0  0  0  0
 14 29  1  0  0  0  0
 15  2  1  0  0  0  0
 17  6  1  0  0  0  0
 18  7  1  0  0  0  0
 21 12  1  0  0  0  0
 22 12  1  0  0  0  0
 24 13  1  0  0  0  0
 26 13  1  0  0  0  0
 27 14  1  0  0  0  0
 28 14  1  0  0  0  0
M  END
