3
 OpenBabel05122313113D

 24 25  0  0  0  0  0  0  0  0999 V2000
    1.1801    1.1091    0.0097 O   0  0  0  0  0  0  0  0  0  0  0  0
    2.8847    2.5711    0.0390 O   0  0  0  0  0  0  0  0  0  0  0  0
    0.5526   -0.1494    0.0008 C   0  0  0  0  0  2  0  0  0  0  0  0
    1.4672   -1.2137   -0.0039 C   0  0  0  0  0  0  0  0  0  0  0  0
    2.8650   -1.0463   -0.0066 C   0  0  0  0  0  0  0  0  0  0  0  0
    3.7778   -2.2488   -0.0463 C   0  0  0  0  0  0  0  0  0  0  0  0
    5.2223   -1.9391    0.3603 C   0  0  0  0  0  0  0  0  0  0  0  0
    5.7305   -0.6904   -0.3669 C   0  0  0  0  0  0  0  0  0  0  0  0
    4.9031    0.5397    0.0225 C   0  0  0  0  0  0  0  0  0  0  0  0
    3.4188    0.2586   -0.0006 C   0  0  0  0  0  0  0  0  0  0  0  0
    2.4940    1.3030    0.0163 C   0  0  0  0  0  0  0  0  0  0  0  0
    1.8764    3.6004    0.0388 C   0  0  0  0  0  0  0  0  0  0  0  0
    1.0523   -2.2318   -0.0051 H   0  0  0  0  0  0  0  0  0  0  0  0
    3.3416   -3.0577    0.5756 H   0  0  0  0  0  0  0  0  0  0  0  0
    3.7606   -2.6400   -1.0897 H   0  0  0  0  0  0  0  0  0  0  0  0
    5.8678   -2.8140    0.1440 H   0  0  0  0  0  0  0  0  0  0  0  0
    5.2738   -1.7736    1.4591 H   0  0  0  0  0  0  0  0  0  0  0  0
    6.8004   -0.5083   -0.1412 H   0  0  0  0  0  0  0  0  0  0  0  0
    5.6630   -0.8538   -1.4651 H   0  0  0  0  0  0  0  0  0  0  0  0
    5.1863    0.8735    1.0468 H   0  0  0  0  0  0  0  0  0  0  0  0
    5.1276    1.4024   -0.6379 H   0  0  0  0  0  0  0  0  0  0  0  0
    1.2242    3.5153    0.9297 H   0  0  0  0  0  0  0  0  0  0  0  0
    1.2440    3.5349   -0.8680 H   0  0  0  0  0  0  0  0  0  0  0  0
    2.4327    4.5532    0.0553 H   0  0  0  0  0  0  0  0  0  0  0  0
  1 11  1  0  0  0  0
  3  1  1  0  0  0  0
  4  3  1  0  0  0  0
  5  4  2  0  0  0  0
  5 10  1  0  0  0  0
  6  5  1  0  0  0  0
  6  7  1  0  0  0  0
  6 14  1  0  0  0  0
  7 17  1  0  0  0  0
  8 18  1  0  0  0  0
  8  9  1  0  0  0  0
  8  7  1  0  0  0  0
  9 20  1  0  0  0  0
 10 11  2  0  0  0  0
 10  9  1  0  0  0  0
 11  2  1  0  0  0  0
 12  2  1  0  0  0  0
 12 24  1  0  0  0  0
 12 22  1  0  0  0  0
 13  4  1  0  0  0  0
 15  6  1  0  0  0  0
 16  7  1  0  0  0  0
 19  8  1  0  0  0  0
 21  9  1  0  0  0  0
 23 12  1  0  0  0  0
M  END
