11
 OpenBabel05122313113D

 19 18  0  0  0  0  0  0  0  0999 V2000
   -1.9061    0.1498    0.2674 N   0  0  0  0  0  0  0  0  0  0  0  0
   -1.9693   -0.8759    0.2869 H   0  0  0  0  0  0  0  0  0  0  0  0
    0.2796    4.4719   -0.0493 C   0  0  0  0  0  0  0  0  0  0  0  0
    1.2025    4.8096    0.4707 H   0  0  0  0  0  0  0  0  0  0  0  0
   -0.5991    4.8485    0.5099 H   0  0  0  0  0  0  0  0  0  0  0  0
    0.3017    4.9606   -1.0474 H   0  0  0  0  0  0  0  0  0  0  0  0
    0.2820    2.9876   -0.1826 C   0  0  0  0  0  0  0  0  0  0  0  0
    1.1324    2.5452   -0.7262 H   0  0  0  0  0  0  0  0  0  0  0  0
   -0.6811    2.1602    0.2965 C   0  0  0  0  0  0  0  0  0  0  0  0
   -1.5309    2.6384    0.8216 H   0  0  0  0  0  0  0  0  0  0  0  0
   -0.6915    0.6979    0.1827 C   0  0  0  0  0  2  0  0  0  0  0  0
   -3.2352    0.7557    0.2959 C   0  0  0  0  0  0  0  0  0  0  0  0
   -3.2236    1.7500   -0.1887 H   0  0  0  0  0  0  0  0  0  0  0  0
   -3.5773    0.8839    1.3474 H   0  0  0  0  0  0  0  0  0  0  0  0
   -4.1961   -0.1747   -0.4404 C   0  0  0  0  0  0  0  0  0  0  0  0
   -5.2283    0.2457   -0.3797 H   0  0  0  0  0  0  0  0  0  0  0  0
   -3.9076   -0.2135   -1.5170 H   0  0  0  0  0  0  0  0  0  0  0  0
   -4.0973   -1.4483    0.1775 O   0  0  0  0  0  0  0  0  0  0  0  0
   -4.3776   -2.1278   -0.4601 H   0  0  0  0  0  0  0  0  0  0  0  0
  1  2  1  0  0  0  0
  1 12  1  0  0  0  0
  3  4  1  0  0  0  0
  3  5  1  0  0  0  0
  6  3  1  0  0  0  0
  7  3  1  0  0  0  0
  7  9  2  0  0  0  0
  8  7  1  0  0  0  0
  9 10  1  0  0  0  0
 11  1  1  0  0  0  0
 11  9  1  0  0  0  0
 12 14  1  0  0  0  0
 13 12  1  0  0  0  0
 15 16  1  0  0  0  0
 15 18  1  0  0  0  0
 15 12  1  0  0  0  0
 17 15  1  0  0  0  0
 19 18  1  0  0  0  0
M  END
