5
 OpenBabel05122313113D

 27 26  0  0  0  0  0  0  0  0999 V2000
   -3.8733    0.5110    0.3807 O   0  0  0  0  0  0  0  0  0  0  0  0
   -3.0509   -1.2435   -0.8084 O   0  0  0  0  0  0  0  0  0  0  0  0
   -1.0889    0.8507   -0.6248 N   0  0  0  0  0  0  0  0  0  0  0  0
   -1.4101    0.0238   -1.1507 H   0  0  0  0  0  0  0  0  0  0  0  0
    0.0592    0.7415    0.0373 C   0  0  0  0  0  2  0  0  0  0  0  0
    0.4953    1.8980    0.8319 C   0  0  0  0  0  0  0  0  0  0  0  0
    0.6963    1.6778    1.8945 H   0  0  0  0  0  0  0  0  0  0  0  0
    0.8627    3.1214    0.3574 C   0  0  0  0  0  0  0  0  0  0  0  0
    0.7942    3.5026   -1.0971 C   0  0  0  0  0  0  0  0  0  0  0  0
    0.4928    2.6649   -1.7526 H   0  0  0  0  0  0  0  0  0  0  0  0
    1.7851    3.8606   -1.4483 H   0  0  0  0  0  0  0  0  0  0  0  0
    0.0877    4.3483   -1.2520 H   0  0  0  0  0  0  0  0  0  0  0  0
    1.4578    4.1550    1.2746 C   0  0  0  0  0  0  0  0  0  0  0  0
    1.4473    3.8318    2.3330 H   0  0  0  0  0  0  0  0  0  0  0  0
    0.9082    5.1182    1.1946 H   0  0  0  0  0  0  0  0  0  0  0  0
    2.5103    4.3761    0.9915 H   0  0  0  0  0  0  0  0  0  0  0  0
   -2.0788    1.9276   -0.5432 C   0  0  0  0  0  0  0  0  0  0  0  0
   -1.9119    2.6750   -1.3509 H   0  0  0  0  0  0  0  0  0  0  0  0
   -1.9406    2.4577    0.4202 H   0  0  0  0  0  0  0  0  0  0  0  0
   -3.5001    1.3983   -0.6870 C   0  0  0  0  0  0  0  0  0  0  0  0
   -4.2087    2.2471   -0.6337 H   0  0  0  0  0  0  0  0  0  0  0  0
   -3.6320    0.8778   -1.6587 H   0  0  0  0  0  0  0  0  0  0  0  0
   -3.6187   -0.8161    0.1835 C   0  0  0  0  0  0  0  0  0  0  0  0
   -4.0918   -1.6489    1.3406 C   0  0  0  0  0  0  0  0  0  0  0  0
   -4.4834   -2.6095    0.9589 H   0  0  0  0  0  0  0  0  0  0  0  0
   -4.8484   -1.1224    1.9484 H   0  0  0  0  0  0  0  0  0  0  0  0
   -3.2094   -1.8814    1.9714 H   0  0  0  0  0  0  0  0  0  0  0  0
  2 23  2  0  0  0  0
  3 17  1  0  0  0  0
  3  5  1  0  0  0  0
  4  3  1  0  0  0  0
  5  6  1  0  0  0  0
  6  7  1  0  0  0  0
  8  6  2  0  0  0  0
  8 13  1  0  0  0  0
  9  8  1  0  0  0  0
 10  9  1  0  0  0  0
 11  9  1  0  0  0  0
 12  9  1  0  0  0  0
 13 14  1  0  0  0  0
 15 13  1  0  0  0  0
 16 13  1  0  0  0  0
 17 19  1  0  0  0  0
 18 17  1  0  0  0  0
 20 21  1  0  0  0  0
 20 17  1  0  0  0  0
 20  1  1  0  0  0  0
 22 20  1  0  0  0  0
 23  1  1  0  0  0  0
 23 24  1  0  0  0  0
 24 26  1  0  0  0  0
 24 27  1  0  0  0  0
 25 24  1  0  0  0  0
M  END
