5
 OpenBabel05122313113D

 21 20  0  0  0  0  0  0  0  0999 V2000
    3.9515   -0.0575   -0.0059 Si  0  0  0  0  0  0  0  0  0  0  0  0
    0.6449   -1.3668   -1.0182 C   0  0  0  0  0  3  0  0  0  0  0  0
    0.9801   -2.3491   -0.6469 H   0  0  0  0  0  0  0  0  0  0  0  0
    0.3677   -1.3569   -2.0855 H   0  0  0  0  0  0  0  0  0  0  0  0
    1.1329   -0.1812   -0.4082 C   0  0  0  0  0  3  0  0  0  0  0  0
    1.1741    0.7029   -1.0641 H   0  0  0  0  0  0  0  0  0  0  0  0
    2.1732   -0.1673    0.6851 C   0  0  0  0  0  0  0  0  0  0  0  0
    2.0913   -1.0728    1.3232 H   0  0  0  0  0  0  0  0  0  0  0  0
    2.0254    0.7007    1.3661 H   0  0  0  0  0  0  0  0  0  0  0  0
    4.3128   -1.5802   -1.0707 C   0  0  0  0  0  0  0  0  0  0  0  0
    3.5807   -1.6628   -1.8998 H   0  0  0  0  0  0  0  0  0  0  0  0
    4.2472   -2.5106   -0.4695 H   0  0  0  0  0  0  0  0  0  0  0  0
    5.3292   -1.5327   -1.5133 H   0  0  0  0  0  0  0  0  0  0  0  0
    4.1033    1.5102   -1.0646 C   0  0  0  0  0  0  0  0  0  0  0  0
    3.4314    1.4662   -1.9465 H   0  0  0  0  0  0  0  0  0  0  0  0
    5.1391    1.6431   -1.4394 H   0  0  0  0  0  0  0  0  0  0  0  0
    3.8367    2.4150   -0.4793 H   0  0  0  0  0  0  0  0  0  0  0  0
    5.1730    0.0336    1.4395 C   0  0  0  0  0  0  0  0  0  0  0  0
    4.9770    0.9227    2.0738 H   0  0  0  0  0  0  0  0  0  0  0  0
    6.2199    0.0998    1.0777 H   0  0  0  0  0  0  0  0  0  0  0  0
    5.0944   -0.8655    2.0850 H   0  0  0  0  0  0  0  0  0  0  0  0
  1  7  1  0  0  0  0
  1 18  1  0  0  0  0
  2  3  1  0  0  0  0
  2  5  1  0  0  0  0
  4  2  1  0  0  0  0
  5  7  1  0  0  0  0
  6  5  1  0  0  0  0
  7  8  1  0  0  0  0
  7  9  1  0  0  0  0
 10 12  1  0  0  0  0
 10  1  1  0  0  0  0
 11 10  1  0  0  0  0
 13 10  1  0  0  0  0
 14 17  1  0  0  0  0
 14  1  1  0  0  0  0
 15 14  1  0  0  0  0
 16 14  1  0  0  0  0
 18 19  1  0  0  0  0
 18 21  1  0  0  0  0
 20 18  1  0  0  0  0
M  END
