1
 OpenBabel05122313113D

 38 41  0  0  1  0  0  0  0  0999 V2000
    0.5365    0.6327   -1.5247 C   0  0  1  0  0  3  0  0  0  0  0  0
   -0.2595   -0.3780   -2.1983 C   0  0  0  0  0  0  0  0  0  0  0  0
    0.0724   -1.4018   -2.4018 H   0  0  0  0  0  0  0  0  0  0  0  0
   -1.5976    0.0890   -2.3799 C   0  0  0  0  0  0  0  0  0  0  0  0
   -2.4061   -0.4447   -2.8921 H   0  0  0  0  0  0  0  0  0  0  0  0
   -1.6310    1.4719   -1.9986 C   0  0  0  0  0  0  0  0  0  0  0  0
   -2.6703    2.4399   -2.0522 C   0  0  0  0  0  0  0  0  0  0  0  0
   -3.6543    2.1696   -2.4637 H   0  0  0  0  0  0  0  0  0  0  0  0
   -2.4132    3.7195   -1.5859 C   0  0  0  0  0  0  0  0  0  0  0  0
   -3.2047    4.4834   -1.6241 H   0  0  0  0  0  0  0  0  0  0  0  0
   -1.1343    4.0705   -1.0638 C   0  0  0  0  0  0  0  0  0  0  0  0
   -0.9627    5.0988   -0.7124 H   0  0  0  0  0  0  0  0  0  0  0  0
   -0.1023    3.1470   -0.9922 C   0  0  0  0  0  0  0  0  0  0  0  0
    0.8766    3.4388   -0.5941 H   0  0  0  0  0  0  0  0  0  0  0  0
   -0.3270    1.8214   -1.4682 C   0  0  0  0  0  0  0  0  0  0  0  0
    1.4768    0.2945   -0.4539 C   0  0  0  0  0  3  0  0  0  0  0  0
    2.4424   -0.8280   -0.6361 C   0  0  0  0  0  0  0  0  0  0  0  0
    2.6889   -1.4412   -1.8890 C   0  0  0  0  0  0  0  0  0  0  0  0
    2.1744   -1.0655   -2.7843 H   0  0  0  0  0  0  0  0  0  0  0  0
    3.6080   -2.4928   -2.0195 C   0  0  0  0  0  0  0  0  0  0  0  0
    3.7737   -2.9464   -3.0092 H   0  0  0  0  0  0  0  0  0  0  0  0
    4.3260   -2.9556   -0.9064 C   0  0  0  0  0  0  0  0  0  0  0  0
    5.0443   -3.7828   -1.0083 H   0  0  0  0  0  0  0  0  0  0  0  0
    4.1383   -2.3216    0.3348 C   0  0  0  0  0  0  0  0  0  0  0  0
    4.7179   -2.6466    1.2129 H   0  0  0  0  0  0  0  0  0  0  0  0
    3.2227   -1.2708    0.4632 C   0  0  0  0  0  0  0  0  0  0  0  0
    3.1026   -0.7674    1.4336 H   0  0  0  0  0  0  0  0  0  0  0  0
    2.0636    1.4190    0.3686 C   0  0  0  0  0  0  0  0  0  0  0  0
    3.1409    2.1674   -0.1591 C   0  0  0  0  0  0  0  0  0  0  0  0
    3.5268    1.9085   -1.1574 H   0  0  0  0  0  0  0  0  0  0  0  0
    3.7028    3.2312    0.5590 C   0  0  0  0  0  0  0  0  0  0  0  0
    4.5320    3.8093    0.1226 H   0  0  0  0  0  0  0  0  0  0  0  0
    3.2080    3.5616    1.8331 C   0  0  0  0  0  0  0  0  0  0  0  0
    3.6460    4.3989    2.3975 H   0  0  0  0  0  0  0  0  0  0  0  0
    2.1575    2.8126    2.3818 C   0  0  0  0  0  0  0  0  0  0  0  0
    1.7629    3.0577    3.3795 H   0  0  0  0  0  0  0  0  0  0  0  0
    1.5979    1.7474    1.6565 C   0  0  0  0  0  0  0  0  0  0  0  0
    0.7642    1.1750    2.0930 H   0  0  0  0  0  0  0  0  0  0  0  0
  1 15  1  0  0  0  0
  1 16  1  1  0  0  0
  2  1  1  0  0  0  0
  3  2  1  0  0  0  0
  4  2  2  0  0  0  0
  4  6  1  0  0  0  0
  5  4  1  0  0  0  0
  6 15  1  0  0  0  0
  7  6  2  0  0  0  0
  7  9  1  0  0  0  0
  8  7  1  0  0  0  0
  9 11  2  0  0  0  0
 10  9  1  0  0  0  0
 11 13  1  0  0  0  0
 11 12  1  0  0  0  0
 13 14  1  0  0  0  0
 15 13  2  0  0  0  0
 16 28  1  0  0  0  0
 17 16  1  0  0  0  0
 17 26  1  0  0  0  0
 18 17  2  0  0  0  0
 19 18  1  0  0  0  0
 20 18  1  0  0  0  0
 20 22  2  0  0  0  0
 21 20  1  0  0  0  0
 22 24  1  0  0  0  0
 23 22  1  0  0  0  0
 24 26  2  0  0  0  0
 24 25  1  0  0  0  0
 26 27  1  0  0  0  0
 28 37  1  0  0  0  0
 29 28  2  0  0  0  0
 29 31  1  0  0  0  0
 30 29  1  0  0  0  0
 31 33  2  0  0  0  0
 32 31  1  0  0  0  0
 33 35  1  0  0  0  0
 33 34  1  0  0  0  0
 35 36  1  0  0  0  0
 37 38  1  0  0  0  0
 37 35  2  0  0  0  0
M  END
