2
 OpenBabel05122313113D

 33 34  0  0  0  0  0  0  0  0999 V2000
   -0.3433    0.0984    2.3784 O   0  0  0  0  0  0  0  0  0  0  0  0
    0.1678   -0.0046    1.1421 C   0  0  0  0  0  2  0  0  0  0  0  0
    1.3705    0.7693    0.8634 C   0  0  0  0  0  3  0  0  0  0  0  0
    2.5369    0.3306    0.2711 C   0  0  0  0  0  3  0  0  0  0  0  0
    3.5614    1.2973   -0.1721 C   0  0  0  0  0  0  0  0  0  0  0  0
    3.1905    2.5801   -0.6457 C   0  0  0  0  0  0  0  0  0  0  0  0
    4.1611    3.4990   -1.0567 C   0  0  0  0  0  0  0  0  0  0  0  0
    5.5241    3.1588   -0.9987 C   0  0  0  0  0  0  0  0  0  0  0  0
    5.9083    1.8912   -0.5328 C   0  0  0  0  0  0  0  0  0  0  0  0
    4.9382    0.9661   -0.1278 C   0  0  0  0  0  0  0  0  0  0  0  0
    2.8445   -1.1161    0.1624 C   0  0  0  0  0  0  0  0  0  0  0  0
    3.3721   -1.6630   -1.0306 C   0  0  0  0  0  0  0  0  0  0  0  0
    3.6744   -3.0282   -1.1128 C   0  0  0  0  0  0  0  0  0  0  0  0
    3.4921   -3.8637    0.0034 C   0  0  0  0  0  0  0  0  0  0  0  0
    2.9939   -3.3280    1.2025 C   0  0  0  0  0  0  0  0  0  0  0  0
    2.6651   -1.9673    1.2773 C   0  0  0  0  0  0  0  0  0  0  0  0
    0.3509    0.8525    3.4269 C   0  0  0  0  0  0  0  0  0  0  0  0
    0.0713    2.2784    3.3423 C   0  0  0  0  0  0  0  0  0  0  0  0
   -0.1644    3.4753    3.2619 C   0  0  0  0  0  0  0  0  0  0  0  0
    1.3254    1.8289    1.1749 H   0  0  0  0  0  0  0  0  0  0  0  0
    2.1246    2.8385   -0.7248 H   0  0  0  0  0  0  0  0  0  0  0  0
    3.8555    4.4846   -1.4381 H   0  0  0  0  0  0  0  0  0  0  0  0
    6.2871    3.8822   -1.3228 H   0  0  0  0  0  0  0  0  0  0  0  0
    6.9737    1.6223   -0.4812 H   0  0  0  0  0  0  0  0  0  0  0  0
    5.2460   -0.0198    0.2495 H   0  0  0  0  0  0  0  0  0  0  0  0
    3.5186   -1.0102   -1.9029 H   0  0  0  0  0  0  0  0  0  0  0  0
    4.0671   -3.4434   -2.0529 H   0  0  0  0  0  0  0  0  0  0  0  0
    3.7534   -4.9308   -0.0577 H   0  0  0  0  0  0  0  0  0  0  0  0
    2.8747   -3.9717    2.0870 H   0  0  0  0  0  0  0  0  0  0  0  0
    2.3089   -1.5391    2.2262 H   0  0  0  0  0  0  0  0  0  0  0  0
    1.4424    0.6534    3.3618 H   0  0  0  0  0  0  0  0  0  0  0  0
   -0.0379    0.4279    4.3736 H   0  0  0  0  0  0  0  0  0  0  0  0
   -0.3681    4.5375    3.2140 H   0  0  0  0  0  0  0  0  0  0  0  0
  1 17  1  0  0  0  0
  2  1  1  0  0  0  0
  3  2  1  0  0  0  0
  3 20  1  0  0  0  0
  4  3  1  0  0  0  0
  5 10  1  0  0  0  0
  5  4  1  0  0  0  0
  6  5  2  0  0  0  0
  7  8  2  0  0  0  0
  7  6  1  0  0  0  0
  8  9  1  0  0  0  0
  9 24  1  0  0  0  0
  9 10  2  0  0  0  0
 10 25  1  0  0  0  0
 11  4  1  0  0  0  0
 11 16  1  0  0  0  0
 12 11  2  0  0  0  0
 13 12  1  0  0  0  0
 13 14  2  0  0  0  0
 14 15  1  0  0  0  0
 15 16  2  0  0  0  0
 15 29  1  0  0  0  0
 16 30  1  0  0  0  0
 17 32  1  0  0  0  0
 18 17  1  0  0  0  0
 19 18  3  0  0  0  0
 21  6  1  0  0  0  0
 22  7  1  0  0  0  0
 23  8  1  0  0  0  0
 26 12  1  0  0  0  0
 27 13  1  0  0  0  0
 28 14  1  0  0  0  0
 31 17  1  0  0  0  0
 33 19  1  0  0  0  0
M  END
