2
 OpenBabel05122313113D

 21 20  0  0  0  0  0  0  0  0999 V2000
   -4.1890    1.0929   -0.0238 Si  0  0  0  0  0  0  0  0  0  0  0  0
   -1.6971   -1.2599    0.0436 C   0  0  0  0  0  1  0  0  0  0  0  0
   -3.0669   -1.6251    0.1028 C   0  0  0  0  0  0  0  0  0  0  0  0
   -3.2352   -2.7243    0.1534 H   0  0  0  0  0  0  0  0  0  0  0  0
   -4.1754   -0.8117    0.1083 C   0  0  0  0  0  0  0  0  0  0  0  0
   -5.5416   -1.4493    0.1879 C   0  0  0  0  0  0  0  0  0  0  0  0
   -6.0598   -1.1737    1.1326 H   0  0  0  0  0  0  0  0  0  0  0  0
   -5.4905   -2.5564    0.1381 H   0  0  0  0  0  0  0  0  0  0  0  0
   -6.2069   -1.0991   -0.6318 H   0  0  0  0  0  0  0  0  0  0  0  0
   -2.5437    1.9643    0.2699 C   0  0  0  0  0  0  0  0  0  0  0  0
   -2.1760    1.8208    1.3043 H   0  0  0  0  0  0  0  0  0  0  0  0
   -2.6945    3.0531    0.1116 H   0  0  0  0  0  0  0  0  0  0  0  0
   -1.7464    1.6202   -0.4143 H   0  0  0  0  0  0  0  0  0  0  0  0
   -5.4429    1.7294    1.2523 C   0  0  0  0  0  0  0  0  0  0  0  0
   -6.4627    1.3340    1.0705 H   0  0  0  0  0  0  0  0  0  0  0  0
   -5.4989    2.8370    1.2114 H   0  0  0  0  0  0  0  0  0  0  0  0
   -5.1430    1.4448    2.2821 H   0  0  0  0  0  0  0  0  0  0  0  0
   -4.8278    1.5222   -1.7604 C   0  0  0  0  0  0  0  0  0  0  0  0
   -4.1132    1.1921   -2.5409 H   0  0  0  0  0  0  0  0  0  0  0  0
   -4.9591    2.6198   -1.8604 H   0  0  0  0  0  0  0  0  0  0  0  0
   -5.8065    1.0435   -1.9678 H   0  0  0  0  0  0  0  0  0  0  0  0
  1  5  1  0  0  0  0
  1 10  1  0  0  0  0
  1 14  1  0  0  0  0
  2  3  1  0  0  0  0
  3  5  2  0  0  0  0
  3  4  1  0  0  0  0
  5  6  1  0  0  0  0
  6  7  1  0  0  0  0
  8  6  1  0  0  0  0
  9  6  1  0  0  0  0
 10 11  1  0  0  0  0
 12 10  1  0  0  0  0
 13 10  1  0  0  0  0
 14 17  1  0  0  0  0
 15 14  1  0  0  0  0
 16 14  1  0  0  0  0
 18  1  1  0  0  0  0
 19 18  1  0  0  0  0
 20 18  1  0  0  0  0
 21 18  1  0  0  0  0
M  END
