9
 OpenBabel05122313113D

 12 11  0  0  0  0  0  0  0  0999 V2000
    1.7526    0.8486   -2.3385 O   0  0  0  0  0  0  0  0  0  0  0  0
    2.3440   -2.0577   -2.3313 F   0  0  0  0  0  0  0  0  0  0  0  0
    2.0187   -1.8871   -0.1545 F   0  0  0  0  0  0  0  0  0  0  0  0
    4.3685   -0.3741   -2.2926 F   0  0  0  0  0  0  0  0  0  0  0  0
    3.8706    0.3607   -0.2690 F   0  0  0  0  0  0  0  0  0  0  0  0
    4.5370   -1.9928    0.8316 F   0  0  0  0  0  0  0  0  0  0  0  0
    6.0854   -1.3427   -0.5576 F   0  0  0  0  0  0  0  0  0  0  0  0
    4.7236   -2.9532   -1.1234 F   0  0  0  0  0  0  0  0  0  0  0  0
    1.3906   -0.0076   -1.5539 C   0  0  0  0  0  0  0  0  0  0  0  0
    2.3858   -1.2015   -1.2827 C   0  0  0  0  0  0  0  0  0  0  0  0
    3.8567   -0.7255   -1.0924 C   0  0  0  0  0  0  0  0  0  0  0  0
    4.8181   -1.7852   -0.4671 C   0  0  0  0  0  0  0  0  0  0  0  0
  1  9  2  0  0  0  0
  2 10  1  0  0  0  0
  4 11  1  0  0  0  0
  7 12  1  0  0  0  0
  8 12  1  0  0  0  0
  9 10  1  0  0  0  0
 10 11  1  0  0  0  0
 10  3  1  0  0  0  0
 11 12  1  0  0  0  0
 11  5  1  0  0  0  0
 12  6  1  0  0  0  0
M  END
