3
 OpenBabel05122313113D

 25 27  0  0  0  0  0  0  0  0999 V2000
   -0.8446   -2.3994   -0.6797 C   0  0  0  0  0  0  0  0  0  0  0  0
   -2.1565   -1.6642   -0.8350 C   0  0  0  0  0  3  0  0  0  0  0  0
   -2.2338   -0.5736   -1.7425 C   0  0  0  0  0  3  0  0  0  0  0  0
   -1.0845    0.2405   -1.9469 C   0  0  0  0  0  3  0  0  0  0  0  0
    0.1846   -0.1461   -1.3366 C   0  0  0  0  0  0  0  0  0  0  0  0
    1.3163    0.7004   -1.3878 C   0  0  0  0  0  0  0  0  0  0  0  0
    2.4860    0.4290   -0.6553 C   0  0  0  0  0  0  0  0  0  0  0  0
    3.6295    1.2917   -0.6927 C   0  0  0  0  0  0  0  0  0  0  0  0
    4.7544    1.0054    0.0572 C   0  0  0  0  0  0  0  0  0  0  0  0
    4.7985   -0.1579    0.8835 C   0  0  0  0  0  0  0  0  0  0  0  0
    3.7143   -1.0148    0.9447 C   0  0  0  0  0  0  0  0  0  0  0  0
    2.5326   -0.7535    0.1845 C   0  0  0  0  0  0  0  0  0  0  0  0
    1.4152   -1.6184    0.2017 C   0  0  0  0  0  0  0  0  0  0  0  0
    0.2583   -1.3639   -0.5450 C   0  0  0  0  0  0  0  0  0  0  0  0
   -0.8620   -3.0394    0.2245 H   0  0  0  0  0  0  0  0  0  0  0  0
   -0.6376   -3.0774   -1.5447 H   0  0  0  0  0  0  0  0  0  0  0  0
   -3.0870   -2.1935   -0.5810 H   0  0  0  0  0  0  0  0  0  0  0  0
   -3.1999   -0.2538   -2.1631 H   0  0  0  0  0  0  0  0  0  0  0  0
   -1.1208    1.1258   -2.5958 H   0  0  0  0  0  0  0  0  0  0  0  0
    1.2661    1.6165   -1.9970 H   0  0  0  0  0  0  0  0  0  0  0  0
    3.5910    2.1911   -1.3262 H   0  0  0  0  0  0  0  0  0  0  0  0
    5.6247    1.6780    0.0225 H   0  0  0  0  0  0  0  0  0  0  0  0
    5.7021   -0.3690    1.4748 H   0  0  0  0  0  0  0  0  0  0  0  0
    3.7445   -1.9127    1.5811 H   0  0  0  0  0  0  0  0  0  0  0  0
    1.4680   -2.5420    0.8000 H   0  0  0  0  0  0  0  0  0  0  0  0
  1 14  1  0  0  0  0
  1 15  1  0  0  0  0
  2  1  1  0  0  0  0
  2 17  1  0  0  0  0
  3  2  1  0  0  0  0
  4  3  1  0  0  0  0
  4  5  1  0  0  0  0
  5 14  1  0  0  0  0
  6  5  2  0  0  0  0
  6  7  1  0  0  0  0
  7 12  1  0  0  0  0
  8  7  2  0  0  0  0
  8  9  1  0  0  0  0
  9 10  2  0  0  0  0
 10 11  1  0  0  0  0
 10 23  1  0  0  0  0
 11 24  1  0  0  0  0
 12 13  1  0  0  0  0
 12 11  2  0  0  0  0
 13 25  1  0  0  0  0
 14 13  2  0  0  0  0
 16  1  1  0  0  0  0
 18  3  1  0  0  0  0
 19  4  1  0  0  0  0
 20  6  1  0  0  0  0
 21  8  1  0  0  0  0
 22  9  1  0  0  0  0
M  END
