7
 OpenBabel05122313113D

 37 40  0  0  0  0  0  0  0  0999 V2000
   -0.6697    0.0187    0.5555 C   0  0  0  0  0  0  0  0  0  0  0  0
    0.0893   -0.2582    1.7580 C   0  0  0  0  0  0  0  0  0  0  0  0
   -0.1477   -1.4100    2.6867 C   0  0  0  0  0  0  0  0  0  0  0  0
   -0.9180   -1.1312    3.4359 H   0  0  0  0  0  0  0  0  0  0  0  0
    0.7748   -1.6857    3.2321 H   0  0  0  0  0  0  0  0  0  0  0  0
   -0.5175   -2.3000    2.1459 H   0  0  0  0  0  0  0  0  0  0  0  0
    1.0408    0.8038    1.9660 C   0  0  0  0  0  3  0  0  0  0  0  0
    1.7273    0.8823    2.8169 H   0  0  0  0  0  0  0  0  0  0  0  0
    0.8205    1.8152    0.9487 C   0  0  0  0  0  0  0  0  0  0  0  0
    1.4189    3.0872    0.6976 C   0  0  0  0  0  0  0  0  0  0  0  0
    2.2142    3.4601    1.3594 H   0  0  0  0  0  0  0  0  0  0  0  0
    0.9613    3.8404   -0.3730 C   0  0  0  0  0  0  0  0  0  0  0  0
    1.4022    4.8299   -0.5655 H   0  0  0  0  0  0  0  0  0  0  0  0
   -0.0626    3.3574   -1.2415 C   0  0  0  0  0  0  0  0  0  0  0  0
   -0.3887    3.9839   -2.0849 H   0  0  0  0  0  0  0  0  0  0  0  0
   -0.6455    2.1142   -1.0475 C   0  0  0  0  0  0  0  0  0  0  0  0
   -1.4372    1.7386   -1.7114 H   0  0  0  0  0  0  0  0  0  0  0  0
   -0.2261    1.3271    0.0668 C   0  0  0  0  0  0  0  0  0  0  0  0
   -3.5503   -2.1517   -0.6978 C   0  0  0  0  0  0  0  0  0  0  0  0
   -3.6871   -2.4188   -1.7705 H   0  0  0  0  0  0  0  0  0  0  0  0
   -3.9754   -3.0052   -0.1220 H   0  0  0  0  0  0  0  0  0  0  0  0
   -2.0869   -1.9376   -0.3756 C   0  0  0  0  0  0  0  0  0  0  0  0
   -1.0821   -3.0178   -0.5876 C   0  0  0  0  0  0  0  0  0  0  0  0
   -0.0482   -2.6464   -0.4624 H   0  0  0  0  0  0  0  0  0  0  0  0
   -1.1736   -3.4561   -1.6041 H   0  0  0  0  0  0  0  0  0  0  0  0
   -1.2314   -3.8566    0.1278 H   0  0  0  0  0  0  0  0  0  0  0  0
   -1.8976   -0.6607    0.0996 C   0  0  0  0  0  0  0  0  0  0  0  0
   -3.2005    0.0387    0.1395 C   0  0  0  0  0  0  0  0  0  0  0  0
   -3.5386    1.3318    0.5737 C   0  0  0  0  0  0  0  0  0  0  0  0
   -2.7690    2.0158    0.9608 H   0  0  0  0  0  0  0  0  0  0  0  0
   -4.8837    1.7348    0.5064 C   0  0  0  0  0  0  0  0  0  0  0  0
   -5.1649    2.7450    0.8412 H   0  0  0  0  0  0  0  0  0  0  0  0
   -5.8743    0.8638    0.0190 C   0  0  0  0  0  0  0  0  0  0  0  0
   -6.9215    1.1990   -0.0265 H   0  0  0  0  0  0  0  0  0  0  0  0
   -5.5376   -0.4366   -0.4059 C   0  0  0  0  0  0  0  0  0  0  0  0
   -6.3172   -1.1194   -0.7786 H   0  0  0  0  0  0  0  0  0  0  0  0
   -4.2030   -0.8426   -0.3419 C   0  0  0  0  0  0  0  0  0  0  0  0
  1  2  2  0  0  0  0
  2  7  1  0  0  0  0
  2  3  1  0  0  0  0
  3  5  1  0  0  0  0
  3  4  1  0  0  0  0
  6  3  1  0  0  0  0
  7  8  1  0  0  0  0
  9  7  1  0  0  0  0
 10  9  1  0  0  0  0
 10 11  1  0  0  0  0
 12 10  2  0  0  0  0
 13 12  1  0  0  0  0
 14 16  2  0  0  0  0
 14 12  1  0  0  0  0
 15 14  1  0  0  0  0
 16 18  1  0  0  0  0
 17 16  1  0  0  0  0
 18  1  1  0  0  0  0
 18  9  2  0  0  0  0
 19 22  1  0  0  0  0
 19 37  1  0  0  0  0
 19 21  1  0  0  0  0
 20 19  1  0  0  0  0
 22 27  2  0  0  0  0
 23 24  1  0  0  0  0
 23 22  1  0  0  0  0
 23 26  1  0  0  0  0
 25 23  1  0  0  0  0
 27 28  1  0  0  0  0
 27  1  1  0  0  0  0
 28 29  1  0  0  0  0
 29 30  1  0  0  0  0
 31 29  2  0  0  0  0
 31 32  1  0  0  0  0
 33 31  1  0  0  0  0
 34 33  1  0  0  0  0
 35 37  1  0  0  0  0
 35 33  2  0  0  0  0
 36 35  1  0  0  0  0
 37 28  2  0  0  0  0
M  END
