15
 OpenBabel05122313113D

 37 39  0  0  0  0  0  0  0  0999 V2000
    2.1117    3.4586   -0.4400 O   0  0  0  0  0  0  0  0  0  0  0  0
    3.3575    2.6918   -2.0679 O   0  0  0  0  0  0  0  0  0  0  0  0
    7.0913    0.0037   -0.4957 O   0  0  0  0  0  0  0  0  0  0  0  0
    6.7004   -1.5827    0.9621 O   0  0  0  0  0  0  0  0  0  0  0  0
   -1.9314    2.8259   -1.0440 O   0  0  0  0  0  0  0  0  0  0  0  0
   -3.9836    3.5177   -0.7156 O   0  0  0  0  0  0  0  0  0  0  0  0
   -7.2322   -0.0924   -0.4802 O   0  0  0  0  0  0  0  0  0  0  0  0
   -6.7160   -1.9410    0.5733 O   0  0  0  0  0  0  0  0  0  0  0  0
    1.0080    1.2294    0.9415 N   0  0  0  0  0  0  0  0  0  0  0  0
   -1.1507    1.0874    0.9509 N   0  0  0  0  0  0  0  0  0  0  0  0
    2.8709    2.6329   -0.9455 N   0  0  0  0  0  0  0  0  0  0  0  0
    6.3755   -0.6059    0.2934 N   0  0  0  0  0  0  0  0  0  0  0  0
   -3.0801    2.6912   -0.6296 N   0  0  0  0  0  0  0  0  0  0  0  0
   -6.4554   -0.8306    0.1190 N   0  0  0  0  0  0  0  0  0  0  0  0
   -0.0244    0.4006    0.5661 C   0  0  0  0  0  2  0  0  0  0  0  0
   -0.8245    2.3040    1.5565 C   0  0  0  0  0  0  0  0  0  0  0  0
   -1.5836    2.9908    1.9408 H   0  0  0  0  0  0  0  0  0  0  0  0
    0.5353    2.3920    1.5559 C   0  0  0  0  0  0  0  0  0  0  0  0
    1.2044    3.1730    1.9210 H   0  0  0  0  0  0  0  0  0  0  0  0
    2.3731    0.8396    0.7859 C   0  0  0  0  0  0  0  0  0  0  0  0
    3.2647    1.4706   -0.1116 C   0  0  0  0  0  0  0  0  0  0  0  0
    4.5664    0.9901   -0.2894 C   0  0  0  0  0  0  0  0  0  0  0  0
    5.2437    1.4598   -1.0139 H   0  0  0  0  0  0  0  0  0  0  0  0
    4.9782   -0.1105    0.4607 C   0  0  0  0  0  0  0  0  0  0  0  0
    4.1228   -0.7679    1.3516 C   0  0  0  0  0  0  0  0  0  0  0  0
    4.4899   -1.6428    1.9039 H   0  0  0  0  0  0  0  0  0  0  0  0
    2.8171   -0.2911    1.4982 C   0  0  0  0  0  0  0  0  0  0  0  0
    2.1082   -0.7990    2.1663 H   0  0  0  0  0  0  0  0  0  0  0  0
   -2.4709    0.6187    0.7072 C   0  0  0  0  0  0  0  0  0  0  0  0
   -3.4254    1.3924    0.0089 C   0  0  0  0  0  0  0  0  0  0  0  0
   -4.7345    0.9338   -0.1690 C   0  0  0  0  0  0  0  0  0  0  0  0
   -5.4772    1.5476   -0.6944 H   0  0  0  0  0  0  0  0  0  0  0  0
   -5.0652   -0.3304    0.3186 C   0  0  0  0  0  0  0  0  0  0  0  0
   -4.1390   -1.1363    0.9914 C   0  0  0  0  0  0  0  0  0  0  0  0
   -4.4507   -2.1243    1.3551 H   0  0  0  0  0  0  0  0  0  0  0  0
   -2.8449   -0.6476    1.1949 C   0  0  0  0  0  0  0  0  0  0  0  0
   -2.1004   -1.2419    1.7421 H   0  0  0  0  0  0  0  0  0  0  0  0
  2 11  2  0  0  0  0
  3 12  2  0  0  0  0
  5 13  2  0  0  0  0
  6 13  2  0  0  0  0
  7 14  2  0  0  0  0
  9 18  1  0  0  0  0
 10 16  1  0  0  0  0
 11  1  2  0  0  0  0
 11 21  1  0  0  0  0
 12 24  1  0  0  0  0
 12  4  2  0  0  0  0
 13 30  1  0  0  0  0
 14 33  1  0  0  0  0
 14  8  2  0  0  0  0
 15  9  1  0  0  0  0
 15 10  1  0  0  0  0
 16 17  1  0  0  0  0
 18 16  2  0  0  0  0
 18 19  1  0  0  0  0
 20  9  1  0  0  0  0
 20 27  1  0  0  0  0
 21 20  2  0  0  0  0
 22 21  1  0  0  0  0
 22 24  2  0  0  0  0
 23 22  1  0  0  0  0
 24 25  1  0  0  0  0
 25 27  2  0  0  0  0
 25 26  1  0  0  0  0
 27 28  1  0  0  0  0
 29 10  1  0  0  0  0
 29 36  1  0  0  0  0
 30 29  2  0  0  0  0
 31 30  1  0  0  0  0
 31 33  2  0  0  0  0
 32 31  1  0  0  0  0
 33 34  1  0  0  0  0
 34 36  2  0  0  0  0
 34 35  1  0  0  0  0
 36 37  1  0  0  0  0
M  END
