1
 OpenBabel05122313113D

 47 47  0  0  1  0  0  0  0  0999 V2000
   -0.8522   -0.4369    0.0003 C   0  0  0  0  0  1  0  0  0  0  0  0
    0.3552   -0.5952    0.0004 N   0  0  0  0  0  2  0  0  0  0  0  0
    1.6411   -0.2879    0.0003 C   0  0  0  0  0  0  0  0  0  0  0  0
    2.6370    0.6952    0.0001 C   0  0  0  0  0  0  0  0  0  0  0  0
    2.9762   -0.6942    0.0001 C   0  0  1  0  0  3  0  0  0  0  0  0
    2.9420    1.9781    0.0000 N   0  0  0  0  0  0  0  0  0  0  0  0
    3.8536   -1.6791    0.0000 N   0  0  0  0  0  0  0  0  0  0  0  0
    4.3545    2.4457   -0.0001 C   0  0  0  0  0  0  0  0  0  0  0  0
    4.9581    1.5150   -0.0002 H   0  0  0  0  0  0  0  0  0  0  0  0
    4.6774    3.2224   -1.2788 C   0  0  0  0  0  0  0  0  0  0  0  0
    4.4539    2.6236   -2.1834 H   0  0  0  0  0  0  0  0  0  0  0  0
    5.7535    3.4838   -1.2950 H   0  0  0  0  0  0  0  0  0  0  0  0
    4.1097    4.1726   -1.3391 H   0  0  0  0  0  0  0  0  0  0  0  0
    1.8257    2.9751    0.0002 C   0  0  0  0  0  0  0  0  0  0  0  0
    2.3334    3.9594    0.0000 H   0  0  0  0  0  0  0  0  0  0  0  0
    0.9915    2.8627   -1.2779 C   0  0  0  0  0  0  0  0  0  0  0  0
    1.6206    2.9692   -2.1828 H   0  0  0  0  0  0  0  0  0  0  0  0
    0.2221    3.6585   -1.2994 H   0  0  0  0  0  0  0  0  0  0  0  0
    0.4581    1.8931   -1.3349 H   0  0  0  0  0  0  0  0  0  0  0  0
    5.3179   -1.4174   -0.0001 C   0  0  0  0  0  0  0  0  0  0  0  0
    5.4052   -0.3115   -0.0002 H   0  0  0  0  0  0  0  0  0  0  0  0
    5.9723   -1.9462   -1.2787 C   0  0  0  0  0  0  0  0  0  0  0  0
    7.0429   -1.6637   -1.2948 H   0  0  0  0  0  0  0  0  0  0  0  0
    5.4905   -1.5262   -2.1833 H   0  0  0  0  0  0  0  0  0  0  0  0
    5.9255   -3.0522   -1.3392 H   0  0  0  0  0  0  0  0  0  0  0  0
    3.3474   -3.0868    0.0001 C   0  0  0  0  0  0  0  0  0  0  0  0
    4.2630   -3.7101    0.0000 H   0  0  0  0  0  0  0  0  0  0  0  0
    2.5597   -3.3850   -1.2774 C   0  0  0  0  0  0  0  0  0  0  0  0
    1.6219   -2.7950   -1.3255 H   0  0  0  0  0  0  0  0  0  0  0  0
    2.2768   -4.4552   -1.3023 H   0  0  0  0  0  0  0  0  0  0  0  0
    3.1595   -3.1676   -2.1825 H   0  0  0  0  0  0  0  0  0  0  0  0
    5.9725   -1.9462    1.2784 C   0  0  0  0  0  0  0  0  0  0  0  0
    7.0432   -1.6636    1.2942 H   0  0  0  0  0  0  0  0  0  0  0  0
    5.4909   -1.5261    2.1830 H   0  0  0  0  0  0  0  0  0  0  0  0
    5.9258   -3.0521    1.3389 H   0  0  0  0  0  0  0  0  0  0  0  0
    2.5600   -3.3850    1.2778 C   0  0  0  0  0  0  0  0  0  0  0  0
    1.6222   -2.7950    1.3260 H   0  0  0  0  0  0  0  0  0  0  0  0
    2.2771   -4.4552    1.3028 H   0  0  0  0  0  0  0  0  0  0  0  0
    3.1599   -3.1675    2.1827 H   0  0  0  0  0  0  0  0  0  0  0  0
    4.6778    3.2224    1.2784 C   0  0  0  0  0  0  0  0  0  0  0  0
    4.4544    2.6237    2.1830 H   0  0  0  0  0  0  0  0  0  0  0  0
    5.7538    3.4838    1.2943 H   0  0  0  0  0  0  0  0  0  0  0  0
    4.1100    4.1726    1.3387 H   0  0  0  0  0  0  0  0  0  0  0  0
    0.9919    2.8628    1.2785 C   0  0  0  0  0  0  0  0  0  0  0  0
    1.6213    2.9695    2.1832 H   0  0  0  0  0  0  0  0  0  0  0  0
    0.2224    3.6586    1.3001 H   0  0  0  0  0  0  0  0  0  0  0  0
    0.4586    1.8932    1.3358 H   0  0  0  0  0  0  0  0  0  0  0  0
  1  2  1  0  0  0  0
  3  2  1  0  0  0  0
  4  3  2  0  0  0  0
  5  7  1  1  0  0  0
  5  4  1  0  0  0  0
  5  3  1  0  0  0  0
  6  4  1  0  0  0  0
  6 14  1  0  0  0  0
  7 26  1  0  0  0  0
  8  6  1  0  0  0  0
  8 40  1  0  0  0  0
  9  8  1  0  0  0  0
 10  8  1  0  0  0  0
 11 10  1  0  0  0  0
 12 10  1  0  0  0  0
 13 10  1  0  0  0  0
 14 44  1  0  0  0  0
 15 14  1  0  0  0  0
 16 14  1  0  0  0  0
 17 16  1  0  0  0  0
 18 16  1  0  0  0  0
 19 16  1  0  0  0  0
 20  7  1  0  0  0  0
 20 32  1  0  0  0  0
 21 20  1  0  0  0  0
 22 20  1  0  0  0  0
 23 22  1  0  0  0  0
 24 22  1  0  0  0  0
 25 22  1  0  0  0  0
 26 36  1  0  0  0  0
 27 26  1  0  0  0  0
 28 26  1  0  0  0  0
 29 28  1  0  0  0  0
 30 28  1  0  0  0  0
 31 28  1  0  0  0  0
 32 33  1  0  0  0  0
 32 35  1  0  0  0  0
 32 34  1  0  0  0  0
 36 38  1  0  0  0  0
 36 37  1  0  0  0  0
 36 39  1  0  0  0  0
 40 42  1  0  0  0  0
 40 43  1  0  0  0  0
 40 41  1  0  0  0  0
 44 46  1  0  0  0  0
 44 47  1  0  0  0  0
 44 45  1  0  0  0  0
M  END
