1
 OpenBabel05122313113D

 28 28  0  0  0  0  0  0  0  0999 V2000
    2.1487   -0.7716    0.0300 C   0  0  0  0  0  2  0  0  0  0  0  0
    2.5722   -2.0532    0.0447 N   0  0  0  0  0  0  0  0  0  0  0  0
    1.5975   -3.1590   -0.0040 C   0  0  0  0  0  0  0  0  0  0  0  0
    2.0457   -3.9700   -0.6161 H   0  0  0  0  0  0  0  0  0  0  0  0
    0.7028   -2.7912   -0.5454 H   0  0  0  0  0  0  0  0  0  0  0  0
    1.2012   -3.6622    1.3801 C   0  0  0  0  0  0  0  0  0  0  0  0
    2.0749   -4.0190    1.9634 H   0  0  0  0  0  0  0  0  0  0  0  0
    0.4869   -4.5038    1.2867 H   0  0  0  0  0  0  0  0  0  0  0  0
    0.7028   -2.8521    1.9493 H   0  0  0  0  0  0  0  0  0  0  0  0
    3.9819   -2.4624    0.1343 C   0  0  0  0  0  0  0  0  0  0  0  0
    4.0026   -3.4605    0.6148 H   0  0  0  0  0  0  0  0  0  0  0  0
    4.5184   -1.7960    0.8454 H   0  0  0  0  0  0  0  0  0  0  0  0
    4.6856   -2.5123   -1.2243 C   0  0  0  0  0  0  0  0  0  0  0  0
    4.1700   -3.2157   -1.9077 H   0  0  0  0  0  0  0  0  0  0  0  0
    5.7328   -2.8547   -1.1065 H   0  0  0  0  0  0  0  0  0  0  0  0
    4.7002   -1.5206   -1.7194 H   0  0  0  0  0  0  0  0  0  0  0  0
    3.1334    0.1658    0.0678 N   0  0  0  0  0  0  0  0  0  0  0  0
    4.1044   -0.1653    0.0782 H   0  0  0  0  0  0  0  0  0  0  0  0
    3.0697    1.5750    0.0687 C   0  0  0  0  0  0  0  0  0  0  0  0
    1.8908    2.3410    0.1168 C   0  0  0  0  0  0  0  0  0  0  0  0
    0.8948    1.8731    0.1593 H   0  0  0  0  0  0  0  0  0  0  0  0
    2.0074    3.7388    0.1055 C   0  0  0  0  0  0  0  0  0  0  0  0
    1.0848    4.3448    0.1390 H   0  0  0  0  0  0  0  0  0  0  0  0
    3.1692    4.4114    0.0589 N   0  0  0  0  0  0  0  0  0  0  0  0
    4.2876    3.6705    0.0186 C   0  0  0  0  0  0  0  0  0  0  0  0
    5.2453    4.2203   -0.0187 H   0  0  0  0  0  0  0  0  0  0  0  0
    4.2974    2.2701    0.0204 C   0  0  0  0  0  0  0  0  0  0  0  0
    5.2538    1.7228   -0.0170 H   0  0  0  0  0  0  0  0  0  0  0  0
  1  2  1  0  0  0  0
  1 17  1  0  0  0  0
  2 10  1  0  0  0  0
  3  2  1  0  0  0  0
  3  6  1  0  0  0  0
  4  3  1  0  0  0  0
  5  3  1  0  0  0  0
  6  9  1  0  0  0  0
  6  7  1  0  0  0  0
  8  6  1  0  0  0  0
 10 11  1  0  0  0  0
 10 12  1  0  0  0  0
 13 15  1  0  0  0  0
 13 10  1  0  0  0  0
 14 13  1  0  0  0  0
 16 13  1  0  0  0  0
 17 19  1  0  0  0  0
 17 18  1  0  0  0  0
 19 20  1  0  0  0  0
 20 21  1  0  0  0  0
 22 20  2  0  0  0  0
 22 23  1  0  0  0  0
 24 22  1  0  0  0  0
 25 27  1  0  0  0  0
 25 24  2  0  0  0  0
 26 25  1  0  0  0  0
 27 19  2  0  0  0  0
 28 27  1  0  0  0  0
M  END
