3
 OpenBabel05122313113D

 26 28  0  0  0  0  0  0  0  0999 V2000
    2.1156   -1.0125    1.0348 C   0  0  0  0  0  0  0  0  0  0  0  0
    1.0784   -1.0404    2.0152 C   0  0  0  0  0  0  0  0  0  0  0  0
    0.0376   -1.9197    1.5938 C   0  0  0  0  0  3  0  0  0  0  0  0
    1.0917   -0.4632    2.9461 H   0  0  0  0  0  0  0  0  0  0  0  0
   -0.8814   -2.1537    2.1449 H   0  0  0  0  0  0  0  0  0  0  0  0
    0.4752   -2.5577    0.3808 C   0  0  0  0  0  0  0  0  0  0  0  0
    1.7449   -1.9676    0.0020 C   0  0  0  0  0  0  0  0  0  0  0  0
    3.3141   -0.2048    1.1195 C   0  0  0  0  0  0  0  0  0  0  0  0
    4.2044   -0.2628    0.0787 O   0  0  0  0  0  0  0  0  0  0  0  0
    5.2291    0.6064    0.3388 C   0  0  0  0  0  0  0  0  0  0  0  0
    5.0094    1.2205    1.5558 C   0  0  0  0  0  0  0  0  0  0  0  0
    3.7773    0.6996    2.0633 C   0  0  0  0  0  0  0  0  0  0  0  0
    3.2904    0.9547    3.0107 H   0  0  0  0  0  0  0  0  0  0  0  0
    5.6618    1.9623    2.0290 H   0  0  0  0  0  0  0  0  0  0  0  0
    6.2951    0.7085   -0.6902 C   0  0  0  0  0  0  0  0  0  0  0  0
    7.0608    1.4398   -0.3723 H   0  0  0  0  0  0  0  0  0  0  0  0
    5.8788    1.0385   -1.6654 H   0  0  0  0  0  0  0  0  0  0  0  0
    6.7953   -0.2685   -0.8595 H   0  0  0  0  0  0  0  0  0  0  0  0
   -0.1046   -3.5796   -0.4221 C   0  0  0  0  0  0  0  0  0  0  0  0
   -1.0689   -4.0225   -0.1349 H   0  0  0  0  0  0  0  0  0  0  0  0
    0.5630   -3.9858   -1.5649 C   0  0  0  0  0  0  0  0  0  0  0  0
    0.1310   -4.7778   -2.1948 H   0  0  0  0  0  0  0  0  0  0  0  0
    1.7971   -3.3838   -1.9560 C   0  0  0  0  0  0  0  0  0  0  0  0
    2.2864   -3.7227   -2.8815 H   0  0  0  0  0  0  0  0  0  0  0  0
    2.3893   -2.3846   -1.1997 C   0  0  0  0  0  0  0  0  0  0  0  0
    3.3365   -1.9196   -1.4980 H   0  0  0  0  0  0  0  0  0  0  0  0
  1  8  1  0  0  0  0
  1  2  2  0  0  0  0
  2  4  1  0  0  0  0
  3  2  1  0  0  0  0
  3  5  1  0  0  0  0
  6  3  1  0  0  0  0
  7  6  1  0  0  0  0
  7  1  1  0  0  0  0
  8 12  2  0  0  0  0
  9 10  1  0  0  0  0
  9  8  1  0  0  0  0
 10 11  2  0  0  0  0
 11 14  1  0  0  0  0
 11 12  1  0  0  0  0
 12 13  1  0  0  0  0
 15 16  1  0  0  0  0
 15 10  1  0  0  0  0
 17 15  1  0  0  0  0
 18 15  1  0  0  0  0
 19 20  1  0  0  0  0
 19  6  2  0  0  0  0
 21 19  1  0  0  0  0
 22 21  1  0  0  0  0
 23 21  2  0  0  0  0
 23 25  1  0  0  0  0
 24 23  1  0  0  0  0
 25  7  2  0  0  0  0
 26 25  1  0  0  0  0
M  END
