3
 OpenBabel05122313113D

 35 35  0  0  0  0  0  0  0  0999 V2000
   -3.5819    1.1526   -0.0001 O   0  0  0  0  0  0  0  0  0  0  0  0
    1.8821    0.2575    0.0002 N   0  0  0  0  0  2  0  0  0  0  0  0
    3.0552    0.0898    0.0002 C   0  0  0  0  0  1  0  0  0  0  0  0
    0.5220    0.4546    0.0001 C   0  0  0  0  0  0  0  0  0  0  0  0
   -0.0033    1.7697   -0.0002 C   0  0  0  0  0  0  0  0  0  0  0  0
   -1.3805    1.9629   -0.0002 C   0  0  0  0  0  0  0  0  0  0  0  0
   -2.2647    0.8566   -0.0000 C   0  0  0  0  0  0  0  0  0  0  0  0
   -1.7367   -0.4550    0.0002 C   0  0  0  0  0  0  0  0  0  0  0  0
   -0.3522   -0.6517    0.0003 C   0  0  0  0  0  0  0  0  0  0  0  0
   -4.5402    0.0908    0.0002 C   0  0  0  0  0  0  0  0  0  0  0  0
   -5.9303    0.7041    0.0002 C   0  0  0  0  0  0  0  0  0  0  0  0
   -7.0399   -0.3503   -0.0001 C   0  0  0  0  0  0  0  0  0  0  0  0
   -8.4483    0.2504    0.0002 C   0  0  0  0  0  0  0  0  0  0  0  0
   -9.5650   -0.7963   -0.0002 C   0  0  0  0  0  0  0  0  0  0  0  0
  -10.9749   -0.1976    0.0001 C   0  0  0  0  0  0  0  0  0  0  0  0
  -12.0840   -1.2499   -0.0003 C   0  0  0  0  0  0  0  0  0  0  0  0
    0.6849    2.6264   -0.0003 H   0  0  0  0  0  0  0  0  0  0  0  0
   -1.8123    2.9736   -0.0004 H   0  0  0  0  0  0  0  0  0  0  0  0
   -2.3986   -1.3304    0.0004 H   0  0  0  0  0  0  0  0  0  0  0  0
    0.0653   -1.6684    0.0005 H   0  0  0  0  0  0  0  0  0  0  0  0
   -4.3906   -0.5517    0.8991 H   0  0  0  0  0  0  0  0  0  0  0  0
   -4.3909   -0.5521   -0.8984 H   0  0  0  0  0  0  0  0  0  0  0  0
   -6.0271    1.3637   -0.8887 H   0  0  0  0  0  0  0  0  0  0  0  0
   -6.0273    1.3634    0.8893 H   0  0  0  0  0  0  0  0  0  0  0  0
   -6.9244   -1.0130   -0.8875 H   0  0  0  0  0  0  0  0  0  0  0  0
   -6.9243   -1.0137    0.8867 H   0  0  0  0  0  0  0  0  0  0  0  0
   -8.5639    0.9144   -0.8859 H   0  0  0  0  0  0  0  0  0  0  0  0
   -8.5638    0.9136    0.8869 H   0  0  0  0  0  0  0  0  0  0  0  0
   -9.4477   -1.4600   -0.8871 H   0  0  0  0  0  0  0  0  0  0  0  0
   -9.4476   -1.4608    0.8860 H   0  0  0  0  0  0  0  0  0  0  0  0
  -11.0878    0.4669   -0.8855 H   0  0  0  0  0  0  0  0  0  0  0  0
  -11.0877    0.4661    0.8863 H   0  0  0  0  0  0  0  0  0  0  0  0
  -12.0181   -1.9059    0.8929 H   0  0  0  0  0  0  0  0  0  0  0  0
  -12.0181   -1.9050   -0.8942 H   0  0  0  0  0  0  0  0  0  0  0  0
  -13.0909   -0.7862   -0.0001 H   0  0  0  0  0  0  0  0  0  0  0  0
  1  7  1  0  0  0  0
  1 10  1  0  0  0  0
  2  3  1  0  0  0  0
  4  2  1  0  0  0  0
  4  9  1  0  0  0  0
  5  4  2  0  0  0  0
  6  5  1  0  0  0  0
  6  7  2  0  0  0  0
  7  8  1  0  0  0  0
  8  9  2  0  0  0  0
  8 19  1  0  0  0  0
  9 20  1  0  0  0  0
 10 21  1  0  0  0  0
 11 10  1  0  0  0  0
 11 24  1  0  0  0  0
 12 11  1  0  0  0  0
 12 13  1  0  0  0  0
 12 26  1  0  0  0  0
 13 28  1  0  0  0  0
 14 15  1  0  0  0  0
 14 13  1  0  0  0  0
 14 30  1  0  0  0  0
 15 32  1  0  0  0  0
 16 35  1  0  0  0  0
 16 15  1  0  0  0  0
 16 33  1  0  0  0  0
 17  5  1  0  0  0  0
 18  6  1  0  0  0  0
 22 10  1  0  0  0  0
 23 11  1  0  0  0  0
 25 12  1  0  0  0  0
 27 13  1  0  0  0  0
 29 14  1  0  0  0  0
 31 15  1  0  0  0  0
 34 16  1  0  0  0  0
M  END
