1
 OpenBabel05122313113D

 28 28  0  0  0  0  0  0  0  0999 V2000
   -0.2367    1.2080    0.1421 C   0  0  0  0  0  3  0  0  0  0  0  0
   -0.0414    2.3567   -0.5666 C   0  0  0  0  0  0  0  0  0  0  0  0
    0.9338    3.4395   -0.1606 C   0  0  0  0  0  0  0  0  0  0  0  0
   -0.7515    2.6505   -1.8602 C   0  0  0  0  0  0  0  0  0  0  0  0
    0.4806    1.0909    1.3887 N   0  0  0  0  0  0  0  0  0  0  0  0
   -0.2266    1.6374    2.5617 C   0  0  0  0  0  0  0  0  0  0  0  0
    1.6819    0.5764    1.5747 C   0  0  0  0  0  3  0  0  0  0  0  0
    2.6230    0.0545    0.6072 C   0  0  0  0  0  0  0  0  0  0  0  0
    3.7951   -0.5489    1.1406 C   0  0  0  0  0  0  0  0  0  0  0  0
    4.7489   -1.1290    0.3028 C   0  0  0  0  0  0  0  0  0  0  0  0
    4.5515   -1.1283   -1.0895 C   0  0  0  0  0  0  0  0  0  0  0  0
    3.4012   -0.5319   -1.6325 C   0  0  0  0  0  0  0  0  0  0  0  0
    2.4484    0.0653   -0.8020 C   0  0  0  0  0  0  0  0  0  0  0  0
    1.4830    3.2268    0.7759 H   0  0  0  0  0  0  0  0  0  0  0  0
    1.6928    3.5916   -0.9594 H   0  0  0  0  0  0  0  0  0  0  0  0
    0.4142    4.4151   -0.0418 H   0  0  0  0  0  0  0  0  0  0  0  0
   -1.4612    1.8605   -2.1541 H   0  0  0  0  0  0  0  0  0  0  0  0
   -1.3120    3.6077   -1.7886 H   0  0  0  0  0  0  0  0  0  0  0  0
   -0.0180    2.7795   -2.6864 H   0  0  0  0  0  0  0  0  0  0  0  0
   -0.0914    0.9867    3.4461 H   0  0  0  0  0  0  0  0  0  0  0  0
    0.1659    2.6526    2.7722 H   0  0  0  0  0  0  0  0  0  0  0  0
   -1.2987    1.7066    2.3179 H   0  0  0  0  0  0  0  0  0  0  0  0
    1.9824    0.4909    2.6322 H   0  0  0  0  0  0  0  0  0  0  0  0
    3.9399   -0.5689    2.2321 H   0  0  0  0  0  0  0  0  0  0  0  0
    5.6474   -1.5943    0.7343 H   0  0  0  0  0  0  0  0  0  0  0  0
    5.2974   -1.5932   -1.7517 H   0  0  0  0  0  0  0  0  0  0  0  0
    3.2390   -0.5310   -2.7206 H   0  0  0  0  0  0  0  0  0  0  0  0
    1.5577    0.5360   -1.2312 H   0  0  0  0  0  0  0  0  0  0  0  0
  1  5  1  0  0  0  0
  2  3  1  0  0  0  0
  2  1  2  0  0  0  0
  3 16  1  0  0  0  0
  3 14  1  0  0  0  0
  4 18  1  0  0  0  0
  4  2  1  0  0  0  0
  5  7  1  0  0  0  0
  5  6  1  0  0  0  0
  6 21  1  0  0  0  0
  6 20  1  0  0  0  0
  7 23  1  0  0  0  0
  8  9  1  0  0  0  0
  8  7  1  0  0  0  0
  9 24  1  0  0  0  0
 10 25  1  0  0  0  0
 10  9  2  0  0  0  0
 11 10  1  0  0  0  0
 12 11  2  0  0  0  0
 12 13  1  0  0  0  0
 13  8  2  0  0  0  0
 15  3  1  0  0  0  0
 17  4  1  0  0  0  0
 19  4  1  0  0  0  0
 22  6  1  0  0  0  0
 26 11  1  0  0  0  0
 27 12  1  0  0  0  0
 28 13  1  0  0  0  0
M  END
