1
 OpenBabel05122313113D

 23 23  0  0  1  0  0  0  0  0999 V2000
   -0.2695    1.0178   -0.2500 C   0  0  0  0  0  3  0  0  0  0  0  0
   -0.3686    2.3750   -0.3674 C   0  0  0  0  0  0  0  0  0  0  0  0
    0.8293    3.2848   -0.3373 C   0  0  0  0  0  0  0  0  0  0  0  0
   -1.6734    3.1205   -0.5525 C   0  0  0  0  0  0  0  0  0  0  0  0
   -1.5316    0.3053   -0.3185 N   0  0  0  0  0  0  0  0  0  0  0  0
   -2.3553    0.0920    0.6890 C   0  0  1  0  0  3  0  0  0  0  0  0
   -2.1826    0.7194    2.0243 C   0  0  0  0  0  0  0  0  0  0  0  0
   -3.6791   -0.9939    0.3331 S   0  0  0  0  0  0  0  0  0  0  0  0
   -2.8797   -1.4493   -1.2711 C   0  0  0  0  0  0  0  0  0  0  0  0
   -1.9932   -0.2566   -1.6038 C   0  0  0  0  0  0  0  0  0  0  0  0
    1.7783    2.7437   -0.1937 H   0  0  0  0  0  0  0  0  0  0  0  0
    0.9033    3.8633   -1.2838 H   0  0  0  0  0  0  0  0  0  0  0  0
    0.7309    4.0324    0.4798 H   0  0  0  0  0  0  0  0  0  0  0  0
   -2.5675    2.4707   -0.6109 H   0  0  0  0  0  0  0  0  0  0  0  0
   -1.8338    3.8381    0.2826 H   0  0  0  0  0  0  0  0  0  0  0  0
   -1.6436    3.7371   -1.4772 H   0  0  0  0  0  0  0  0  0  0  0  0
   -1.1115    0.9585    2.1749 H   0  0  0  0  0  0  0  0  0  0  0  0
   -2.7457    1.6760    2.0696 H   0  0  0  0  0  0  0  0  0  0  0  0
   -2.5440    0.0536    2.8287 H   0  0  0  0  0  0  0  0  0  0  0  0
   -3.6612   -1.6316   -2.0307 H   0  0  0  0  0  0  0  0  0  0  0  0
   -2.2883   -2.3732   -1.1135 H   0  0  0  0  0  0  0  0  0  0  0  0
   -1.1172   -0.5322   -2.2153 H   0  0  0  0  0  0  0  0  0  0  0  0
   -2.5543    0.5498   -2.1262 H   0  0  0  0  0  0  0  0  0  0  0  0
  2  3  1  0  0  0  0
  2  1  2  0  0  0  0
  3 11  1  0  0  0  0
  3 13  1  0  0  0  0
  4  2  1  0  0  0  0
  4 15  1  0  0  0  0
  5  1  1  0  0  0  0
  5  6  1  0  0  0  0
  6  7  1  6  0  0  0
  7 18  1  0  0  0  0
  7 17  1  0  0  0  0
  7 19  1  0  0  0  0
  8  6  1  0  0  0  0
  9 21  1  0  0  0  0
  9  8  1  0  0  0  0
 10  9  1  0  0  0  0
 10  5  1  0  0  0  0
 12  3  1  0  0  0  0
 14  4  1  0  0  0  0
 16  4  1  0  0  0  0
 20  9  1  0  0  0  0
 22 10  1  0  0  0  0
 23 10  1  0  0  0  0
M  END
