5
 OpenBabel05122313113D

 13 12  0  0  0  0  0  0  0  0999 V2000
   -1.3012    3.2304    1.3502 C   0  0  0  0  0  0  0  0  0  0  0  0
   -1.3579    2.9377    2.4182 H   0  0  0  0  0  0  0  0  0  0  0  0
   -2.3476    3.2031    0.9805 H   0  0  0  0  0  0  0  0  0  0  0  0
   -0.9142    4.2663    1.2672 H   0  0  0  0  0  0  0  0  0  0  0  0
   -0.4996    2.2445    0.5964 C   0  0  0  0  0  3  0  0  0  0  0  0
    1.2489    3.4050   -0.8067 C   0  0  0  0  0  0  0  0  0  0  0  0
    1.0160    3.4095   -1.8940 H   0  0  0  0  0  0  0  0  0  0  0  0
    0.8933    4.3727   -0.3908 H   0  0  0  0  0  0  0  0  0  0  0  0
    2.7492    3.2274   -0.6003 C   0  0  0  0  0  0  0  0  0  0  0  0
    3.2974    4.0324   -1.1261 H   0  0  0  0  0  0  0  0  0  0  0  0
    3.0913    2.2554   -1.0061 H   0  0  0  0  0  0  0  0  0  0  0  0
    3.0181    3.2807    0.4734 H   0  0  0  0  0  0  0  0  0  0  0  0
    0.4732    2.3290   -0.2103 N   0  0  0  0  0  0  0  0  0  0  0  0
  1  2  1  0  0  0  0
  3  1  1  0  0  0  0
  4  1  1  0  0  0  0
  5  1  1  0  0  0  0
  6  9  1  0  0  0  0
  6  8  1  0  0  0  0
  6 13  1  0  0  0  0
  7  6  1  0  0  0  0
  9 12  1  0  0  0  0
 10  9  1  0  0  0  0
 11  9  1  0  0  0  0
 13  5  2  0  0  0  0
M  END
