4
 OpenBabel05122313113D

 12 11  0  0  0  0  0  0  0  0999 V2000
    1.1554   -2.5927   -0.7272 Se  0  0  0  0  0  1  0  0  0  0  0  0
   -3.4226   -1.8367   -1.3145 O   0  0  0  0  0  0  0  0  0  0  0  0
   -3.5199   -2.1649    0.9273 O   0  0  0  0  0  0  0  0  0  0  0  0
   -0.4445   -1.4985   -0.9952 C   0  0  0  0  0  3  0  0  0  0  0  0
   -0.7947   -1.4875   -2.0418 H   0  0  0  0  0  0  0  0  0  0  0  0
   -1.4244   -1.6214    0.0572 C   0  0  0  0  0  3  0  0  0  0  0  0
   -1.1052   -2.1072    0.9926 H   0  0  0  0  0  0  0  0  0  0  0  0
   -2.8648   -1.8485   -0.2250 C   0  0  0  0  0  0  0  0  0  0  0  0
   -4.8888   -2.5541    0.7749 C   0  0  0  0  0  0  0  0  0  0  0  0
   -5.2211   -2.8998    1.7699 H   0  0  0  0  0  0  0  0  0  0  0  0
   -4.9869   -3.3659    0.0268 H   0  0  0  0  0  0  0  0  0  0  0  0
   -5.5138   -1.7004    0.4416 H   0  0  0  0  0  0  0  0  0  0  0  0
  2  8  2  0  0  0  0
  4  1  1  0  0  0  0
  4  6  1  0  0  0  0
  5  4  1  0  0  0  0
  6  7  1  0  0  0  0
  8  6  1  0  0  0  0
  8  3  1  0  0  0  0
  9  3  1  0  0  0  0
  9 10  1  0  0  0  0
 11  9  1  0  0  0  0
 12  9  1  0  0  0  0
M  END
