7
 OpenBabel05122313113D

 56 56  0  0  0  0  0  0  0  0999 V2000
   -0.7368   -0.0915    0.7104 Si  0  0  0  0  0  3  0  0  0  0  0  0
   -0.8596   -1.0148    1.9062 H   0  0  0  0  0  0  0  0  0  0  0  0
   -2.9596   -1.4796   -0.9744 Si  0  0  0  0  0  0  0  0  0  0  0  0
   -2.6466    1.6800   -1.0908 Si  0  0  0  0  0  0  0  0  0  0  0  0
   -3.6040    0.2676    1.5922 Si  0  0  0  0  0  0  0  0  0  0  0  0
   -0.1570    1.4314    1.2205 O   0  0  0  0  0  0  0  0  0  0  0  0
    1.2497    1.1397    1.1233 C   0  0  0  0  0  3  0  0  0  0  0  0
    1.6282    0.8045    2.1156 H   0  0  0  0  0  0  0  0  0  0  0  0
    2.0292    2.3410    0.6858 C   0  0  0  0  0  0  0  0  0  0  0  0
    1.4155    3.4079   -0.0037 C   0  0  0  0  0  0  0  0  0  0  0  0
    0.3346    3.3645   -0.1888 H   0  0  0  0  0  0  0  0  0  0  0  0
    2.1648    4.5127   -0.4334 C   0  0  0  0  0  0  0  0  0  0  0  0
    1.6631    5.3300   -0.9745 H   0  0  0  0  0  0  0  0  0  0  0  0
    3.5420    4.5846   -0.1740 C   0  0  0  0  0  0  0  0  0  0  0  0
    4.1295    5.4508   -0.5140 H   0  0  0  0  0  0  0  0  0  0  0  0
    4.1592    3.5442    0.5416 C   0  0  0  0  0  0  0  0  0  0  0  0
    5.2339    3.5972    0.7762 H   0  0  0  0  0  0  0  0  0  0  0  0
    3.4083    2.4432    0.9707 C   0  0  0  0  0  0  0  0  0  0  0  0
    3.8954    1.6443    1.5481 H   0  0  0  0  0  0  0  0  0  0  0  0
   -2.4912    0.1016    0.0119 C   0  0  0  0  0  0  0  0  0  0  0  0
   -2.1848   -1.5082   -2.7089 C   0  0  0  0  0  0  0  0  0  0  0  0
   -1.0809   -1.4102   -2.6673 H   0  0  0  0  0  0  0  0  0  0  0  0
   -2.5750   -0.7107   -3.3706 H   0  0  0  0  0  0  0  0  0  0  0  0
   -2.4216   -2.4844   -3.1813 H   0  0  0  0  0  0  0  0  0  0  0  0
   -4.8300   -1.7166   -1.1912 C   0  0  0  0  0  0  0  0  0  0  0  0
   -4.9958   -2.6257   -1.8064 H   0  0  0  0  0  0  0  0  0  0  0  0
   -5.3099   -0.8648   -1.7089 H   0  0  0  0  0  0  0  0  0  0  0  0
   -5.3491   -1.8702   -0.2249 H   0  0  0  0  0  0  0  0  0  0  0  0
   -2.3085   -3.0433   -0.1138 C   0  0  0  0  0  0  0  0  0  0  0  0
   -2.8004   -3.2407    0.8561 H   0  0  0  0  0  0  0  0  0  0  0  0
   -1.2198   -2.9656    0.0669 H   0  0  0  0  0  0  0  0  0  0  0  0
   -2.4787   -3.9184   -0.7748 H   0  0  0  0  0  0  0  0  0  0  0  0
   -4.2375    1.6659   -2.1334 C   0  0  0  0  0  0  0  0  0  0  0  0
   -4.3011    2.6382   -2.6659 H   0  0  0  0  0  0  0  0  0  0  0  0
   -5.1568    1.5533   -1.5284 H   0  0  0  0  0  0  0  0  0  0  0  0
   -4.2299    0.8698   -2.9045 H   0  0  0  0  0  0  0  0  0  0  0  0
   -1.2219    1.8663   -2.3216 C   0  0  0  0  0  0  0  0  0  0  0  0
   -1.4731    2.6966   -3.0147 H   0  0  0  0  0  0  0  0  0  0  0  0
   -1.0349    0.9639   -2.9318 H   0  0  0  0  0  0  0  0  0  0  0  0
   -0.2777    2.1377   -1.8165 H   0  0  0  0  0  0  0  0  0  0  0  0
   -2.6501    3.2714   -0.0590 C   0  0  0  0  0  0  0  0  0  0  0  0
   -1.7694    3.2890    0.6127 H   0  0  0  0  0  0  0  0  0  0  0  0
   -3.5622    3.3997    0.5557 H   0  0  0  0  0  0  0  0  0  0  0  0
   -2.5845    4.1391   -0.7481 H   0  0  0  0  0  0  0  0  0  0  0  0
   -3.9151   -1.3937    2.4641 C   0  0  0  0  0  0  0  0  0  0  0  0
   -2.9683   -1.8892    2.7562 H   0  0  0  0  0  0  0  0  0  0  0  0
   -4.5132   -2.1053    1.8622 H   0  0  0  0  0  0  0  0  0  0  0  0
   -4.4846   -1.1828    3.3934 H   0  0  0  0  0  0  0  0  0  0  0  0
   -5.3204    0.9803    1.1979 C   0  0  0  0  0  0  0  0  0  0  0  0
   -5.9107    0.9875    2.1381 H   0  0  0  0  0  0  0  0  0  0  0  0
   -5.8717    0.3694    0.4575 H   0  0  0  0  0  0  0  0  0  0  0  0
   -5.2776    2.0215    0.8241 H   0  0  0  0  0  0  0  0  0  0  0  0
   -2.8238    1.3785    2.9175 C   0  0  0  0  0  0  0  0  0  0  0  0
   -3.5306    1.4383    3.7717 H   0  0  0  0  0  0  0  0  0  0  0  0
   -2.6247    2.4041    2.5572 H   0  0  0  0  0  0  0  0  0  0  0  0
   -1.8659    0.9696    3.2942 H   0  0  0  0  0  0  0  0  0  0  0  0
  1  6  1  0  0  0  0
  1  2  1  0  0  0  0
  3 29  1  0  0  0  0
  3 20  1  0  0  0  0
  4 41  1  0  0  0  0
  4 20  1  0  0  0  0
  5 45  1  0  0  0  0
  5 53  1  0  0  0  0
  7  6  1  0  0  0  0
  7  8  1  0  0  0  0
  9 18  1  0  0  0  0
  9  7  1  0  0  0  0
 10  9  2  0  0  0  0
 11 10  1  0  0  0  0
 12 14  2  0  0  0  0
 12 10  1  0  0  0  0
 13 12  1  0  0  0  0
 14 16  1  0  0  0  0
 15 14  1  0  0  0  0
 16 17  1  0  0  0  0
 16 18  2  0  0  0  0
 18 19  1  0  0  0  0
 20  1  1  0  0  0  0
 20  5  1  0  0  0  0
 21 22  1  0  0  0  0
 21  3  1  0  0  0  0
 23 21  1  0  0  0  0
 24 21  1  0  0  0  0
 25  3  1  0  0  0  0
 25 28  1  0  0  0  0
 26 25  1  0  0  0  0
 27 25  1  0  0  0  0
 29 31  1  0  0  0  0
 29 30  1  0  0  0  0
 32 29  1  0  0  0  0
 33 35  1  0  0  0  0
 33  4  1  0  0  0  0
 34 33  1  0  0  0  0
 36 33  1  0  0  0  0
 37 40  1  0  0  0  0
 37  4  1  0  0  0  0
 38 37  1  0  0  0  0
 39 37  1  0  0  0  0
 41 43  1  0  0  0  0
 41 42  1  0  0  0  0
 44 41  1  0  0  0  0
 45 46  1  0  0  0  0
 45 48  1  0  0  0  0
 47 45  1  0  0  0  0
 49  5  1  0  0  0  0
 49 50  1  0  0  0  0
 51 49  1  0  0  0  0
 52 49  1  0  0  0  0
 53 56  1  0  0  0  0
 53 54  1  0  0  0  0
 55 53  1  0  0  0  0
M  END
