3
 OpenBabel05122313113D

 53 55  0  0  0  0  0  0  0  0999 V2000
    1.5360   -0.3782   -1.3689 N   0  0  0  0  0  0  0  0  0  0  0  0
   -0.3861   -1.3861   -1.4752 N   0  0  0  0  0  0  0  0  0  0  0  0
    0.3022   -0.4294   -0.7722 C   0  0  0  0  0  2  0  0  0  0  0  0
    1.5974   -1.2488   -2.4555 C   0  0  0  0  0  0  0  0  0  0  0  0
    2.4920   -1.3308   -3.0783 H   0  0  0  0  0  0  0  0  0  0  0  0
    0.3889   -1.8882   -2.5192 C   0  0  0  0  0  0  0  0  0  0  0  0
    0.0136   -2.6598   -3.1966 H   0  0  0  0  0  0  0  0  0  0  0  0
    2.5487    0.5999   -1.0493 C   0  0  0  0  0  0  0  0  0  0  0  0
    3.8272    0.2772   -0.5293 C   0  0  0  0  0  0  0  0  0  0  0  0
    4.7135    1.3754   -0.3886 C   0  0  0  0  0  0  0  0  0  0  0  0
    5.7282    1.1812   -0.0141 H   0  0  0  0  0  0  0  0  0  0  0  0
    4.3618    2.6964   -0.6756 C   0  0  0  0  0  0  0  0  0  0  0  0
    5.0992    3.5005   -0.5310 H   0  0  0  0  0  0  0  0  0  0  0  0
    3.0694    2.9870   -1.1344 C   0  0  0  0  0  0  0  0  0  0  0  0
    2.7595    4.0194   -1.3533 H   0  0  0  0  0  0  0  0  0  0  0  0
    2.1770    1.9323   -1.3273 C   0  0  0  0  0  0  0  0  0  0  0  0
    1.1623    2.1236   -1.7001 H   0  0  0  0  0  0  0  0  0  0  0  0
    4.3702   -1.1041   -0.0821 C   0  0  0  0  0  0  0  0  0  0  0  0
    3.3300   -2.2344    0.0108 C   0  0  0  0  0  0  0  0  0  0  0  0
    2.9355   -2.5533   -0.9706 H   0  0  0  0  0  0  0  0  0  0  0  0
    2.4906   -1.9376    0.6669 H   0  0  0  0  0  0  0  0  0  0  0  0
    3.8174   -3.1214    0.4639 H   0  0  0  0  0  0  0  0  0  0  0  0
    5.4857   -1.5312   -1.0638 C   0  0  0  0  0  0  0  0  0  0  0  0
    5.9262   -2.4979   -0.7434 H   0  0  0  0  0  0  0  0  0  0  0  0
    6.3037   -0.7849   -1.1171 H   0  0  0  0  0  0  0  0  0  0  0  0
    5.0854   -1.6646   -2.0904 H   0  0  0  0  0  0  0  0  0  0  0  0
    4.9527   -0.9555    1.3476 C   0  0  0  0  0  0  0  0  0  0  0  0
    4.1578   -0.6217    2.0440 H   0  0  0  0  0  0  0  0  0  0  0  0
    5.7946   -0.2389    1.4018 H   0  0  0  0  0  0  0  0  0  0  0  0
    5.3325   -1.9378    1.6950 H   0  0  0  0  0  0  0  0  0  0  0  0
   -1.7891   -1.6750   -1.2953 C   0  0  0  0  0  0  0  0  0  0  0  0
   -2.3142   -2.4564   -0.2352 C   0  0  0  0  0  0  0  0  0  0  0  0
   -3.7292   -2.4970   -0.1592 C   0  0  0  0  0  0  0  0  0  0  0  0
   -4.1904   -3.0587    0.6654 H   0  0  0  0  0  0  0  0  0  0  0  0
   -4.5712   -1.8717   -1.0828 C   0  0  0  0  0  0  0  0  0  0  0  0
   -5.6627   -1.9427   -0.9614 H   0  0  0  0  0  0  0  0  0  0  0  0
   -4.0191   -1.1713   -2.1642 C   0  0  0  0  0  0  0  0  0  0  0  0
   -4.6581   -0.6799   -2.9122 H   0  0  0  0  0  0  0  0  0  0  0  0
   -2.6307   -1.0756   -2.2554 C   0  0  0  0  0  0  0  0  0  0  0  0
   -2.1663   -0.4950   -3.0629 H   0  0  0  0  0  0  0  0  0  0  0  0
   -1.5400   -3.2873    0.8154 C   0  0  0  0  0  0  0  0  0  0  0  0
   -2.0958   -4.7342    0.7952 C   0  0  0  0  0  0  0  0  0  0  0  0
   -1.5471   -5.3502    1.5361 H   0  0  0  0  0  0  0  0  0  0  0  0
   -1.9597   -5.1980   -0.2032 H   0  0  0  0  0  0  0  0  0  0  0  0
   -3.1716   -4.7900    1.0509 H   0  0  0  0  0  0  0  0  0  0  0  0
   -0.0232   -3.3884    0.5819 C   0  0  0  0  0  0  0  0  0  0  0  0
    0.4847   -2.4255    0.7614 H   0  0  0  0  0  0  0  0  0  0  0  0
    0.2256   -3.7589   -0.4322 H   0  0  0  0  0  0  0  0  0  0  0  0
    0.3989   -4.1093    1.3107 H   0  0  0  0  0  0  0  0  0  0  0  0
   -1.7675   -2.6612    2.2111 C   0  0  0  0  0  0  0  0  0  0  0  0
   -2.8449   -2.5909    2.4631 H   0  0  0  0  0  0  0  0  0  0  0  0
   -1.3167   -1.6496    2.2551 H   0  0  0  0  0  0  0  0  0  0  0  0
   -1.2729   -3.2794    2.9881 H   0  0  0  0  0  0  0  0  0  0  0  0
  1  8  1  0  0  0  0
  1  3  1  0  0  0  0
  2 31  1  0  0  0  0
  2  3  1  0  0  0  0
  4  1  1  0  0  0  0
  5  4  1  0  0  0  0
  6  4  2  0  0  0  0
  6  2  1  0  0  0  0
  7  6  1  0  0  0  0
  8  9  1  0  0  0  0
  9 10  2  0  0  0  0
  9 18  1  0  0  0  0
 10 11  1  0  0  0  0
 12 13  1  0  0  0  0
 12 10  1  0  0  0  0
 14 12  2  0  0  0  0
 15 14  1  0  0  0  0
 16 14  1  0  0  0  0
 16  8  2  0  0  0  0
 17 16  1  0  0  0  0
 18 19  1  0  0  0  0
 18 27  1  0  0  0  0
 19 22  1  0  0  0  0
 19 21  1  0  0  0  0
 20 19  1  0  0  0  0
 23 24  1  0  0  0  0
 23 18  1  0  0  0  0
 25 23  1  0  0  0  0
 26 23  1  0  0  0  0
 27 29  1  0  0  0  0
 27 30  1  0  0  0  0
 27 28  1  0  0  0  0
 31 32  1  0  0  0  0
 32 33  2  0  0  0  0
 32 41  1  0  0  0  0
 33 34  1  0  0  0  0
 35 36  1  0  0  0  0
 35 33  1  0  0  0  0
 37 35  2  0  0  0  0
 38 37  1  0  0  0  0
 39 37  1  0  0  0  0
 39 31  2  0  0  0  0
 40 39  1  0  0  0  0
 41 50  1  0  0  0  0
 42 41  1  0  0  0  0
 42 45  1  0  0  0  0
 42 43  1  0  0  0  0
 44 42  1  0  0  0  0
 46 47  1  0  0  0  0
 46 41  1  0  0  0  0
 46 49  1  0  0  0  0
 48 46  1  0  0  0  0
 50 52  1  0  0  0  0
 50 51  1  0  0  0  0
 50 53  1  0  0  0  0
M  END
