14
 OpenBabel05122313113D

 31 32  0  0  0  0  0  0  0  0999 V2000
    0.2176    2.3335   -0.6716 O   0  0  0  0  0  0  0  0  0  0  0  0
    0.8789    3.5636   -0.4037 C   0  0  0  0  0  0  0  0  0  0  0  0
   -4.4625   -1.2916   -0.1484 C   0  0  0  0  0  0  0  0  0  0  0  0
   -5.8244   -1.2993    0.1715 C   0  0  0  0  0  0  0  0  0  0  0  0
   -6.4770   -0.1073    0.5290 C   0  0  0  0  0  0  0  0  0  0  0  0
   -5.7564    1.0986    0.5658 C   0  0  0  0  0  0  0  0  0  0  0  0
   -4.3941    1.1189    0.2485 C   0  0  0  0  0  0  0  0  0  0  0  0
   -3.7247   -0.0794   -0.1147 C   0  0  0  0  0  0  0  0  0  0  0  0
   -2.3391   -0.0600   -0.4358 C   0  0  0  0  0  0  0  0  0  0  0  0
   -1.1365   -0.0277   -0.7011 C   0  0  0  0  0  0  0  0  0  0  0  0
    0.2397    0.0022   -1.0418 C   0  0  0  0  0  0  0  0  0  0  0  0
    0.9553    1.2608   -1.0183 C   0  0  0  0  0  0  0  0  0  0  0  0
    2.3425    1.3106   -1.3308 C   0  0  0  0  0  0  0  0  0  0  0  0
    3.0198    0.1109   -1.6897 C   0  0  0  0  0  3  0  0  0  0  0  0
    2.3256   -1.1236   -1.7729 C   0  0  0  0  0  3  0  0  0  0  0  0
    0.9512   -1.2035   -1.4066 C   0  0  0  0  0  0  0  0  0  0  0  0
    0.2162   -2.5134   -1.4555 C   0  0  0  0  0  0  0  0  0  0  0  0
    0.0914    4.2694   -0.0841 H   0  0  0  0  0  0  0  0  0  0  0  0
    1.6197    3.4495    0.4160 H   0  0  0  0  0  0  0  0  0  0  0  0
    1.3803    3.9668   -1.3102 H   0  0  0  0  0  0  0  0  0  0  0  0
   -3.9480   -2.2228   -0.4269 H   0  0  0  0  0  0  0  0  0  0  0  0
   -6.3842   -2.2464    0.1429 H   0  0  0  0  0  0  0  0  0  0  0  0
   -7.5483   -0.1183    0.7804 H   0  0  0  0  0  0  0  0  0  0  0  0
   -6.2630    2.0344    0.8469 H   0  0  0  0  0  0  0  0  0  0  0  0
   -3.8236    2.0583    0.2777 H   0  0  0  0  0  0  0  0  0  0  0  0
    2.9012    2.2503   -1.2573 H   0  0  0  0  0  0  0  0  0  0  0  0
    4.0980    0.1463   -1.8996 H   0  0  0  0  0  0  0  0  0  0  0  0
    2.8687   -2.0433   -2.0279 H   0  0  0  0  0  0  0  0  0  0  0  0
    0.9212   -3.3654   -1.4449 H   0  0  0  0  0  0  0  0  0  0  0  0
   -0.3925   -2.5712   -2.3822 H   0  0  0  0  0  0  0  0  0  0  0  0
   -0.4777   -2.6157   -0.6002 H   0  0  0  0  0  0  0  0  0  0  0  0
  1  2  1  0  0  0  0
  2 18  1  0  0  0  0
  2 19  1  0  0  0  0
  3  8  2  0  0  0  0
  3  4  1  0  0  0  0
  4  5  2  0  0  0  0
  5  6  1  0  0  0  0
  5 23  1  0  0  0  0
  6 24  1  0  0  0  0
  7 25  1  0  0  0  0
  7  6  2  0  0  0  0
  8  7  1  0  0  0  0
  9  8  1  0  0  0  0
 10  9  3  0  0  0  0
 11 12  1  0  0  0  0
 11 10  1  0  0  0  0
 12  1  1  0  0  0  0
 13 26  1  0  0  0  0
 13 12  2  0  0  0  0
 14 13  1  0  0  0  0
 15 14  1  0  0  0  0
 15 16  1  0  0  0  0
 16 11  2  0  0  0  0
 17 29  1  0  0  0  0
 17 16  1  0  0  0  0
 17 31  1  0  0  0  0
 20  2  1  0  0  0  0
 21  3  1  0  0  0  0
 22  4  1  0  0  0  0
 27 14  1  0  0  0  0
 28 15  1  0  0  0  0
 30 17  1  0  0  0  0
M  END
