2
 OpenBabel05122313113D

 15 15  0  0  0  0  0  0  0  0999 V2000
   -3.1231    1.7802   -0.0159 S   0  0  0  0  0  0  0  0  0  0  0  0
   -2.9486   -0.9332   -0.0518 C   0  0  0  0  0  3  0  0  0  0  0  0
   -3.8636    0.1557   -0.0116 C   0  0  0  0  0  0  0  0  0  0  0  0
   -5.2548   -0.0620    0.0190 C   0  0  0  0  0  0  0  0  0  0  0  0
   -5.9605    0.7801    0.0509 H   0  0  0  0  0  0  0  0  0  0  0  0
   -5.7555   -1.3750    0.0063 C   0  0  0  0  0  0  0  0  0  0  0  0
   -6.8444   -1.5379    0.0304 H   0  0  0  0  0  0  0  0  0  0  0  0
   -4.8769   -2.4645   -0.0381 C   0  0  0  0  0  0  0  0  0  0  0  0
   -5.2677   -3.4938   -0.0491 H   0  0  0  0  0  0  0  0  0  0  0  0
   -3.4880   -2.2351   -0.0666 C   0  0  0  0  0  0  0  0  0  0  0  0
   -2.8072   -3.1006   -0.0988 H   0  0  0  0  0  0  0  0  0  0  0  0
   -4.5474    2.9013    0.1128 C   0  0  0  0  0  0  0  0  0  0  0  0
   -5.2229    2.8118   -0.7620 H   0  0  0  0  0  0  0  0  0  0  0  0
   -4.1254    3.9244    0.1316 H   0  0  0  0  0  0  0  0  0  0  0  0
   -5.1211    2.7330    1.0466 H   0  0  0  0  0  0  0  0  0  0  0  0
  1  3  1  0  0  0  0
  1 12  1  0  0  0  0
  2  3  1  0  0  0  0
  3  4  2  0  0  0  0
  4  5  1  0  0  0  0
  6  4  1  0  0  0  0
  6  7  1  0  0  0  0
  8  6  2  0  0  0  0
  9  8  1  0  0  0  0
 10  2  2  0  0  0  0
 10  8  1  0  0  0  0
 11 10  1  0  0  0  0
 12 14  1  0  0  0  0
 12 15  1  0  0  0  0
 13 12  1  0  0  0  0
M  END
