10
 OpenBabel05122313113D

 42 44  0  0  1  0  0  0  0  0999 V2000
   -0.5445    0.2595    0.2289 O   0  0  0  0  0  0  0  0  0  0  0  0
   -1.1800    1.9427   -1.1814 O   0  0  0  0  0  0  0  0  0  0  0  0
   -2.7115    1.4205    2.1867 O   0  0  0  0  0  0  0  0  0  0  0  0
    1.5887    0.7502    1.2663 C   0  0  0  0  0  3  0  0  0  0  0  0
    2.9746    1.0184    0.9782 C   0  0  0  0  0  3  0  0  0  0  0  0
    3.3468    2.0691   -0.0650 C   0  0  2  0  0  0  0  0  0  0  0  0
    3.2704    3.4824    0.5358 C   0  0  0  0  0  0  0  0  0  0  0  0
    2.4517    1.9000   -1.3182 C   0  0  0  0  0  0  0  0  0  0  0  0
    1.4913    0.7402   -1.1508 C   0  0  0  0  0  3  0  0  0  0  0  0
    0.7925    0.6096    0.0976 C   0  0  1  0  0  3  0  0  0  0  0  0
   -1.4729    1.0177   -0.4543 C   0  0  0  0  0  0  0  0  0  0  0  0
   -2.8635    0.5545   -0.1335 C   0  0  1  0  0  0  0  0  0  0  0  0
   -3.2692    0.7419    1.3525 C   0  0  0  0  0  0  0  0  0  0  0  0
   -4.5460   -0.0970    1.5242 C   0  0  0  0  0  0  0  0  0  0  0  0
   -4.7414   -0.7058    0.1237 C   0  0  1  0  0  0  0  0  0  0  0  0
   -5.2217    0.4318   -0.8011 C   0  0  0  0  0  0  0  0  0  0  0  0
   -3.9618    1.3329   -0.9205 C   0  0  0  0  0  0  0  0  0  0  0  0
   -3.2670   -0.9563   -0.3478 C   0  0  0  0  0  0  0  0  0  0  0  0
   -2.5167   -1.9611    0.5418 C   0  0  0  0  0  0  0  0  0  0  0  0
   -3.1402   -1.4169   -1.8048 C   0  0  0  0  0  0  0  0  0  0  0  0
    1.1598    0.5804    2.2645 H   0  0  0  0  0  0  0  0  0  0  0  0
    3.6739    0.9383    1.8275 H   0  0  0  0  0  0  0  0  0  0  0  0
    4.4020    1.8800   -0.3548 H   0  0  0  0  0  0  0  0  0  0  0  0
    3.5992    4.2462   -0.1983 H   0  0  0  0  0  0  0  0  0  0  0  0
    2.2301    3.7238    0.8377 H   0  0  0  0  0  0  0  0  0  0  0  0
    3.9163    3.5765    1.4325 H   0  0  0  0  0  0  0  0  0  0  0  0
    3.0687    1.7430   -2.2253 H   0  0  0  0  0  0  0  0  0  0  0  0
    1.8484    2.8169   -1.5019 H   0  0  0  0  0  0  0  0  0  0  0  0
    0.9381    0.4317   -2.0512 H   0  0  0  0  0  0  0  0  0  0  0  0
   -5.3837    0.5457    1.8635 H   0  0  0  0  0  0  0  0  0  0  0  0
   -4.3769   -0.8503    2.3195 H   0  0  0  0  0  0  0  0  0  0  0  0
   -5.3762   -1.6136    0.1081 H   0  0  0  0  0  0  0  0  0  0  0  0
   -6.0898    0.9678   -0.3697 H   0  0  0  0  0  0  0  0  0  0  0  0
   -5.5405    0.0444   -1.7880 H   0  0  0  0  0  0  0  0  0  0  0  0
   -3.6240    1.4745   -1.9648 H   0  0  0  0  0  0  0  0  0  0  0  0
   -4.1009    2.3484   -0.5015 H   0  0  0  0  0  0  0  0  0  0  0  0
   -2.3879   -1.6215    1.5870 H   0  0  0  0  0  0  0  0  0  0  0  0
   -3.0689   -2.9234    0.5594 H   0  0  0  0  0  0  0  0  0  0  0  0
   -1.5064   -2.1622    0.1428 H   0  0  0  0  0  0  0  0  0  0  0  0
   -3.6120   -2.4136   -1.9275 H   0  0  0  0  0  0  0  0  0  0  0  0
   -2.0720   -1.5252   -2.0818 H   0  0  0  0  0  0  0  0  0  0  0  0
   -3.6109   -0.7297   -2.5321 H   0  0  0  0  0  0  0  0  0  0  0  0
  2 11  2  0  0  0  0
  4 21  1  0  0  0  0
  5  4  1  0  0  0  0
  5 22  1  0  0  0  0
  6 23  1  6  0  0  0
  6  7  1  0  0  0  0
  6  5  1  0  0  0  0
  7 25  1  0  0  0  0
  7 26  1  0  0  0  0
  8  9  1  0  0  0  0
  8  6  1  0  0  0  0
  9 10  1  0  0  0  0
 10  1  1  6  0  0  0
 10  4  1  0  0  0  0
 11  1  1  0  0  0  0
 12 11  1  6  0  0  0
 12 13  1  0  0  0  0
 13 14  1  0  0  0  0
 13  3  2  0  0  0  0
 14 30  1  0  0  0  0
 14 31  1  0  0  0  0
 15 32  1  6  0  0  0
 15 14  1  0  0  0  0
 16 33  1  0  0  0  0
 16 15  1  0  0  0  0
 17 16  1  0  0  0  0
 17 36  1  0  0  0  0
 17 12  1  0  0  0  0
 18 12  1  0  0  0  0
 18 15  1  0  0  0  0
 18 19  1  0  0  0  0
 19 38  1  0  0  0  0
 19 37  1  0  0  0  0
 20 18  1  0  0  0  0
 24  7  1  0  0  0  0
 27  8  1  0  0  0  0
 28  8  1  0  0  0  0
 29  9  1  0  0  0  0
 34 16  1  0  0  0  0
 35 17  1  0  0  0  0
 39 19  1  0  0  0  0
 40 20  1  0  0  0  0
 41 20  1  0  0  0  0
 42 20  1  0  0  0  0
M  END
