9
 OpenBabel05122313113D

 39 41  0  0  1  0  0  0  0  0999 V2000
   -0.3062    0.1557    0.7892 O   0  0  0  0  0  0  0  0  0  0  0  0
   -1.3703    2.1096    0.2840 O   0  0  0  0  0  0  0  0  0  0  0  0
   -1.6183   -0.5222   -2.0493 O   0  0  0  0  0  0  0  0  0  0  0  0
    1.9189    0.8059    1.5805 C   0  0  0  0  0  3  0  0  0  0  0  0
    3.1950    1.2795    1.1009 C   0  0  0  0  0  3  0  0  0  0  0  0
    3.2596    2.4773    0.1676 C   0  0  0  0  0  0  0  0  0  0  0  0
    2.1687    2.3880   -0.9213 C   0  0  0  0  0  0  0  0  0  0  0  0
    1.3627    1.1146   -0.7606 C   0  0  0  0  0  3  0  0  0  0  0  0
    0.9380    0.7322    0.5551 C   0  0  1  0  0  3  0  0  0  0  0  0
   -1.4079    0.9071    0.4344 C   0  0  0  0  0  0  0  0  0  0  0  0
   -2.5744    0.0016    0.1850 C   0  0  1  0  0  0  0  0  0  0  0  0
   -2.5547   -0.5283   -1.2793 C   0  0  0  0  0  0  0  0  0  0  0  0
   -3.9727   -1.0599   -1.5264 C   0  0  0  0  0  0  0  0  0  0  0  0
   -4.6758   -0.7792   -0.1850 C   0  0  1  0  0  0  0  0  0  0  0  0
   -4.1109   -1.7949    0.8322 C   0  0  0  0  0  0  0  0  0  0  0  0
   -2.6454   -1.3139    1.0303 C   0  0  0  0  0  0  0  0  0  0  0  0
   -4.0275    0.5756    0.2684 C   0  0  0  0  0  0  0  0  0  0  0  0
   -4.4218    1.0210    1.6820 C   0  0  0  0  0  0  0  0  0  0  0  0
   -4.2921    1.7448   -0.6940 C   0  0  0  0  0  0  0  0  0  0  0  0
    1.7129    0.4473    2.5994 H   0  0  0  0  0  0  0  0  0  0  0  0
    4.0465    1.1713    1.7930 H   0  0  0  0  0  0  0  0  0  0  0  0
    3.1505    3.4107    0.7649 H   0  0  0  0  0  0  0  0  0  0  0  0
    4.2681    2.5241   -0.2904 H   0  0  0  0  0  0  0  0  0  0  0  0
    1.4675    3.2495   -0.8626 H   0  0  0  0  0  0  0  0  0  0  0  0
    2.6165    2.4156   -1.9347 H   0  0  0  0  0  0  0  0  0  0  0  0
    0.6710    0.8438   -1.5752 H   0  0  0  0  0  0  0  0  0  0  0  0
   -4.4135   -0.5176   -2.3867 H   0  0  0  0  0  0  0  0  0  0  0  0
   -3.9354   -2.1322   -1.8072 H   0  0  0  0  0  0  0  0  0  0  0  0
   -5.7811   -0.7563   -0.2484 H   0  0  0  0  0  0  0  0  0  0  0  0
   -4.1669   -2.8313    0.4453 H   0  0  0  0  0  0  0  0  0  0  0  0
   -4.6777   -1.7745    1.7827 H   0  0  0  0  0  0  0  0  0  0  0  0
   -2.4129   -1.0870    2.0888 H   0  0  0  0  0  0  0  0  0  0  0  0
   -1.8863   -2.0437    0.6905 H   0  0  0  0  0  0  0  0  0  0  0  0
   -3.8506    1.9273    1.9663 H   0  0  0  0  0  0  0  0  0  0  0  0
   -4.2423    0.2524    2.4568 H   0  0  0  0  0  0  0  0  0  0  0  0
   -5.4998    1.2812    1.7110 H   0  0  0  0  0  0  0  0  0  0  0  0
   -3.9522    1.5516   -1.7299 H   0  0  0  0  0  0  0  0  0  0  0  0
   -3.7555    2.6478   -0.3482 H   0  0  0  0  0  0  0  0  0  0  0  0
   -5.3780    1.9685   -0.7293 H   0  0  0  0  0  0  0  0  0  0  0  0
  2 10  2  0  0  0  0
  3 12  2  0  0  0  0
  4 20  1  0  0  0  0
  5  4  1  0  0  0  0
  5 21  1  0  0  0  0
  6 22  1  0  0  0  0
  6  5  1  0  0  0  0
  7 24  1  0  0  0  0
  7  8  1  0  0  0  0
  7  6  1  0  0  0  0
  8  9  1  0  0  0  0
  9  1  1  6  0  0  0
  9  4  1  0  0  0  0
 10  1  1  0  0  0  0
 11 17  1  0  0  0  0
 11 10  1  1  0  0  0
 11 16  1  0  0  0  0
 12 11  1  0  0  0  0
 13 12  1  0  0  0  0
 13 14  1  0  0  0  0
 14 29  1  6  0  0  0
 14 17  1  0  0  0  0
 14 15  1  0  0  0  0
 15 16  1  0  0  0  0
 15 31  1  0  0  0  0
 16 32  1  0  0  0  0
 17 18  1  0  0  0  0
 18 36  1  0  0  0  0
 18 34  1  0  0  0  0
 18 35  1  0  0  0  0
 19 38  1  0  0  0  0
 19 17  1  0  0  0  0
 23  6  1  0  0  0  0
 25  7  1  0  0  0  0
 26  8  1  0  0  0  0
 27 13  1  0  0  0  0
 28 13  1  0  0  0  0
 30 15  1  0  0  0  0
 33 16  1  0  0  0  0
 37 19  1  0  0  0  0
 39 19  1  0  0  0  0
M  END
