5
 OpenBabel05122313113D

 27 29  0  0  0  0  0  0  0  0999 V2000
    2.2192   -0.9300    0.5671 N   0  0  0  0  0  0  0  0  0  0  0  0
    1.4765    0.9152    1.4277 N   0  0  0  0  0  0  0  0  0  0  0  0
    3.4594   -2.8583    0.1911 N   0  0  0  0  0  0  0  0  0  0  0  0
    1.1328    3.2063    1.7113 N   0  0  0  0  0  0  0  0  0  0  0  0
    1.0833   -0.1893    0.7233 C   0  0  0  0  0  2  0  0  0  0  0  0
    3.3099   -0.2955    1.1691 C   0  0  0  0  0  0  0  0  0  0  0  0
    2.8473    0.8745    1.6939 C   0  0  0  0  0  0  0  0  0  0  0  0
    2.3662   -2.1704   -0.1409 C   0  0  0  0  0  0  0  0  0  0  0  0
    3.6728   -4.0337   -0.4184 C   0  0  0  0  0  0  0  0  0  0  0  0
    2.8008   -4.5633   -1.3824 C   0  0  0  0  0  0  0  0  0  0  0  0
    1.6745   -3.8087   -1.7424 C   0  0  0  0  0  0  0  0  0  0  0  0
    1.4462   -2.5747   -1.1210 C   0  0  0  0  0  0  0  0  0  0  0  0
    0.6248    1.9819    1.8665 C   0  0  0  0  0  0  0  0  0  0  0  0
    0.3812    4.2453    2.1123 C   0  0  0  0  0  0  0  0  0  0  0  0
   -0.9008    4.0967    2.6645 C   0  0  0  0  0  0  0  0  0  0  0  0
   -1.4040    2.7984    2.8419 C   0  0  0  0  0  0  0  0  0  0  0  0
   -0.6243    1.7020    2.4484 C   0  0  0  0  0  0  0  0  0  0  0  0
    4.2931   -0.7718    1.1642 H   0  0  0  0  0  0  0  0  0  0  0  0
    3.3419    1.6820    2.2391 H   0  0  0  0  0  0  0  0  0  0  0  0
    4.5843   -4.5792   -0.1209 H   0  0  0  0  0  0  0  0  0  0  0  0
    3.0097   -5.5372   -1.8476 H   0  0  0  0  0  0  0  0  0  0  0  0
    0.9775   -4.1722   -2.5120 H   0  0  0  0  0  0  0  0  0  0  0  0
    0.5921   -1.9363   -1.3901 H   0  0  0  0  0  0  0  0  0  0  0  0
    0.8267    5.2471    1.9869 H   0  0  0  0  0  0  0  0  0  0  0  0
   -1.4795    4.9801    2.9707 H   0  0  0  0  0  0  0  0  0  0  0  0
   -2.3872    2.6345    3.3076 H   0  0  0  0  0  0  0  0  0  0  0  0
   -0.9487    0.6633    2.6112 H   0  0  0  0  0  0  0  0  0  0  0  0
  1  5  1  0  0  0  0
  1  6  1  0  0  0  0
  2  7  1  0  0  0  0
  2 13  1  0  0  0  0
  4 13  2  0  0  0  0
  4 14  1  0  0  0  0
  5  2  1  0  0  0  0
  6  7  2  0  0  0  0
  7 19  1  0  0  0  0
  8  3  1  0  0  0  0
  8  1  1  0  0  0  0
  9 20  1  0  0  0  0
  9  3  2  0  0  0  0
 10  9  1  0  0  0  0
 11 10  2  0  0  0  0
 11 12  1  0  0  0  0
 12  8  2  0  0  0  0
 13 17  1  0  0  0  0
 14 15  2  0  0  0  0
 15 16  1  0  0  0  0
 15 25  1  0  0  0  0
 16 26  1  0  0  0  0
 17 27  1  0  0  0  0
 17 16  2  0  0  0  0
 18  6  1  0  0  0  0
 21 10  1  0  0  0  0
 22 11  1  0  0  0  0
 23 12  1  0  0  0  0
 24 14  1  0  0  0  0
M  END
