14
 OpenBabel05122313113D

 58 61  0  0  0  0  0  0  0  0999 V2000
   -1.2452   -3.0769    0.4726 O   0  0  0  0  0  0  0  0  0  0  0  0
   -3.6260   -3.1158    0.6828 C   0  0  0  0  0  0  0  0  0  0  0  0
   -3.5135   -3.8546    1.5051 H   0  0  0  0  0  0  0  0  0  0  0  0
   -3.6705   -3.7031   -0.2594 H   0  0  0  0  0  0  0  0  0  0  0  0
  -10.8748    0.8647   -0.6368 N   0  0  0  0  0  0  0  0  0  0  0  0
  -13.1382    1.2587   -0.5268 C   0  0  0  0  0  0  0  0  0  0  0  0
    3.9148   -1.0964    0.1596 N   0  0  0  0  0  2  0  0  0  0  0  0
    0.2427   -1.1346    0.4988 C   0  0  0  0  0  0  0  0  0  0  0  0
   -0.5742   -0.4147    0.6355 H   0  0  0  0  0  0  0  0  0  0  0  0
  -12.1233    0.3660   -1.0003 C   0  0  0  0  0  0  0  0  0  0  0  0
   -0.0168   -2.5215    0.4061 C   0  0  0  0  0  0  0  0  0  0  0  0
    1.5561   -0.6620    0.4165 C   0  0  0  0  0  0  0  0  0  0  0  0
    1.7657    0.4146    0.4875 H   0  0  0  0  0  0  0  0  0  0  0  0
    5.0256   -0.6946    0.0885 C   0  0  0  0  0  1  0  0  0  0  0  0
   -9.6078    0.1998   -0.8588 C   0  0  0  0  0  0  0  0  0  0  0  0
   -8.8250    0.9777   -0.9835 H   0  0  0  0  0  0  0  0  0  0  0  0
   -9.6627   -0.3367   -1.8295 H   0  0  0  0  0  0  0  0  0  0  0  0
  -12.4528    2.3309    0.1697 C   0  0  0  0  0  0  0  0  0  0  0  0
   -2.3882   -2.2353    0.6474 C   0  0  0  0  0  0  0  0  0  0  0  0
   -2.4478   -1.5018   -0.1902 H   0  0  0  0  0  0  0  0  0  0  0  0
   -2.2876   -1.6545    1.5937 H   0  0  0  0  0  0  0  0  0  0  0  0
  -11.0527    2.0406    0.0876 C   0  0  0  0  0  0  0  0  0  0  0  0
   -4.9157   -2.3119    0.8652 C   0  0  0  0  0  0  0  0  0  0  0  0
   -4.8591   -1.7229    1.8088 H   0  0  0  0  0  0  0  0  0  0  0  0
   -4.9987   -1.5633    0.0465 H   0  0  0  0  0  0  0  0  0  0  0  0
    2.3691   -2.9545    0.1484 C   0  0  0  0  0  0  0  0  0  0  0  0
    3.2082   -3.6509    0.0120 H   0  0  0  0  0  0  0  0  0  0  0  0
  -14.8138   -0.1896   -1.5050 C   0  0  0  0  0  0  0  0  0  0  0  0
  -15.8673   -0.4267   -1.7150 H   0  0  0  0  0  0  0  0  0  0  0  0
  -14.4900    0.9704   -0.7893 C   0  0  0  0  0  0  0  0  0  0  0  0
  -15.2812    1.6482   -0.4343 H   0  0  0  0  0  0  0  0  0  0  0  0
   -7.8774   -1.4614    0.0177 C   0  0  0  0  0  0  0  0  0  0  0  0
   -7.0894   -0.6865   -0.1133 H   0  0  0  0  0  0  0  0  0  0  0  0
   -7.9162   -2.0155   -0.9481 H   0  0  0  0  0  0  0  0  0  0  0  0
  -12.4450   -0.8021   -1.7130 C   0  0  0  0  0  0  0  0  0  0  0  0
  -11.6664   -1.4939   -2.0662 H   0  0  0  0  0  0  0  0  0  0  0  0
  -13.8004   -1.0637   -1.9588 C   0  0  0  0  0  0  0  0  0  0  0  0
  -14.0786   -1.9716   -2.5153 H   0  0  0  0  0  0  0  0  0  0  0  0
   -6.1710   -3.1911    0.8976 C   0  0  0  0  0  0  0  0  0  0  0  0
   -6.0480   -3.9576    1.6935 H   0  0  0  0  0  0  0  0  0  0  0  0
   -6.2435   -3.7586   -0.0576 H   0  0  0  0  0  0  0  0  0  0  0  0
   -9.2196   -0.7704    0.2645 C   0  0  0  0  0  0  0  0  0  0  0  0
   -9.1885   -0.2117    1.2251 H   0  0  0  0  0  0  0  0  0  0  0  0
  -10.0241   -1.5293    0.3768 H   0  0  0  0  0  0  0  0  0  0  0  0
  -10.0917    2.8792    0.6783 C   0  0  0  0  0  0  0  0  0  0  0  0
   -9.0173    2.6500    0.6254 H   0  0  0  0  0  0  0  0  0  0  0  0
   -7.4807   -2.4296    1.1376 C   0  0  0  0  0  0  0  0  0  0  0  0
   -7.4116   -1.8697    2.0976 H   0  0  0  0  0  0  0  0  0  0  0  0
   -8.3024   -3.1648    1.2795 H   0  0  0  0  0  0  0  0  0  0  0  0
    1.0621   -3.4221    0.2306 C   0  0  0  0  0  0  0  0  0  0  0  0
    0.8376   -4.4957    0.1613 H   0  0  0  0  0  0  0  0  0  0  0  0
    2.6243   -1.5650    0.2411 C   0  0  0  0  0  0  0  0  0  0  0  0
  -10.5476    4.0246    1.3465 C   0  0  0  0  0  0  0  0  0  0  0  0
   -9.8150    4.6979    1.8169 H   0  0  0  0  0  0  0  0  0  0  0  0
  -12.8805    3.4880    0.8461 C   0  0  0  0  0  0  0  0  0  0  0  0
  -13.9528    3.7260    0.9154 H   0  0  0  0  0  0  0  0  0  0  0  0
  -11.9248    4.3294    1.4305 C   0  0  0  0  0  0  0  0  0  0  0  0
  -12.2471    5.2362    1.9635 H   0  0  0  0  0  0  0  0  0  0  0  0
  1 19  1  0  0  0  0
  2 23  1  0  0  0  0
  2  3  1  0  0  0  0
  4  2  1  0  0  0  0
  5 22  1  0  0  0  0
  6 18  1  0  0  0  0
  7 52  1  0  0  0  0
  8  9  1  0  0  0  0
 10  5  1  0  0  0  0
 10  6  1  0  0  0  0
 11  1  1  0  0  0  0
 11  8  2  0  0  0  0
 12 13  1  0  0  0  0
 12  8  1  0  0  0  0
 14  7  1  0  0  0  0
 15  5  1  0  0  0  0
 15 42  1  0  0  0  0
 16 15  1  0  0  0  0
 17 15  1  0  0  0  0
 18 55  1  0  0  0  0
 19  2  1  0  0  0  0
 19 21  1  0  0  0  0
 20 19  1  0  0  0  0
 22 18  2  0  0  0  0
 22 45  1  0  0  0  0
 23 39  1  0  0  0  0
 23 24  1  0  0  0  0
 25 23  1  0  0  0  0
 26 50  2  0  0  0  0
 26 52  1  0  0  0  0
 27 26  1  0  0  0  0
 28 30  1  0  0  0  0
 29 28  1  0  0  0  0
 30  6  2  0  0  0  0
 30 31  1  0  0  0  0
 32 42  1  0  0  0  0
 32 47  1  0  0  0  0
 33 32  1  0  0  0  0
 34 32  1  0  0  0  0
 35 10  2  0  0  0  0
 36 35  1  0  0  0  0
 37 35  1  0  0  0  0
 37 28  2  0  0  0  0
 38 37  1  0  0  0  0
 39 47  1  0  0  0  0
 39 40  1  0  0  0  0
 41 39  1  0  0  0  0
 42 44  1  0  0  0  0
 42 43  1  0  0  0  0
 45 53  2  0  0  0  0
 46 45  1  0  0  0  0
 47 49  1  0  0  0  0
 47 48  1  0  0  0  0
 50 11  1  0  0  0  0
 51 50  1  0  0  0  0
 52 12  2  0  0  0  0
 53 57  1  0  0  0  0
 53 54  1  0  0  0  0
 55 56  1  0  0  0  0
 55 57  2  0  0  0  0
 57 58  1  0  0  0  0
M  END
