1
 OpenBabel05122313113D

 46 49  0  0  0  0  0  0  0  0999 V2000
   -2.2016   -0.7958   -0.3049 C   0  0  0  0  0  1  0  0  0  0  0  0
    0.2465   -1.4887   -0.5784 C   0  0  0  0  0  0  0  0  0  0  0  0
    0.7740   -2.5379    0.2013 C   0  0  0  0  0  0  0  0  0  0  0  0
    0.1247   -3.0538    0.9224 H   0  0  0  0  0  0  0  0  0  0  0  0
    2.1125   -2.9169    0.0556 C   0  0  0  0  0  0  0  0  0  0  0  0
    2.5039   -3.7386    0.6690 H   0  0  0  0  0  0  0  0  0  0  0  0
    2.9364   -2.2471   -0.8761 C   0  0  0  0  0  0  0  0  0  0  0  0
    2.4003   -1.1955   -1.6580 C   0  0  0  0  0  0  0  0  0  0  0  0
    3.0623   -0.6823   -2.3696 H   0  0  0  0  0  0  0  0  0  0  0  0
    1.0695   -0.8169   -1.5141 C   0  0  0  0  0  0  0  0  0  0  0  0
    0.6497    0.0011   -2.1159 H   0  0  0  0  0  0  0  0  0  0  0  0
    4.9134   -3.4638   -0.2346 C   0  0  0  0  0  0  0  0  0  0  0  0
    4.4890   -4.4830   -0.3787 H   0  0  0  0  0  0  0  0  0  0  0  0
    4.7440   -3.1810    0.8296 H   0  0  0  0  0  0  0  0  0  0  0  0
    6.3977   -3.4416   -0.5890 C   0  0  0  0  0  0  0  0  0  0  0  0
    6.5348   -3.9105   -1.5853 H   0  0  0  0  0  0  0  0  0  0  0  0
    6.9232   -4.0971    0.1390 H   0  0  0  0  0  0  0  0  0  0  0  0
    7.0122   -2.0366   -0.6124 C   0  0  0  0  0  0  0  0  0  0  0  0
    8.0665   -2.0961   -0.9525 H   0  0  0  0  0  0  0  0  0  0  0  0
    6.4730   -1.4262   -1.3650 H   0  0  0  0  0  0  0  0  0  0  0  0
    6.9588   -1.2954    0.7325 C   0  0  0  0  0  0  0  0  0  0  0  0
    5.9429   -1.3572    1.1758 H   0  0  0  0  0  0  0  0  0  0  0  0
    7.6444   -1.7604    1.4709 H   0  0  0  0  0  0  0  0  0  0  0  0
    6.3950    1.0975    0.2176 C   0  0  0  0  0  0  0  0  0  0  0  0
    7.0925    2.3425    0.1071 C   0  0  0  0  0  0  0  0  0  0  0  0
    8.4793    2.0684    0.4354 C   0  0  0  0  0  0  0  0  0  0  0  0
    8.5612    0.6687    0.7296 C   0  0  0  0  0  0  0  0  0  0  0  0
    9.7796    0.0589    1.0740 C   0  0  0  0  0  0  0  0  0  0  0  0
    9.8445   -1.0181    1.2881 H   0  0  0  0  0  0  0  0  0  0  0  0
   10.9213    0.8706    1.1331 C   0  0  0  0  0  0  0  0  0  0  0  0
   11.8877    0.4172    1.4009 H   0  0  0  0  0  0  0  0  0  0  0  0
   10.8570    2.2542    0.8536 C   0  0  0  0  0  0  0  0  0  0  0  0
   11.7730    2.8608    0.9089 H   0  0  0  0  0  0  0  0  0  0  0  0
    9.6419    2.8577    0.5042 C   0  0  0  0  0  0  0  0  0  0  0  0
    9.5951    3.9350    0.2837 H   0  0  0  0  0  0  0  0  0  0  0  0
    5.0195    0.9942   -0.0530 C   0  0  0  0  0  0  0  0  0  0  0  0
    4.4902    0.0338    0.0123 H   0  0  0  0  0  0  0  0  0  0  0  0
    4.3397    2.1626   -0.4256 C   0  0  0  0  0  0  0  0  0  0  0  0
    3.2614    2.1072   -0.6406 H   0  0  0  0  0  0  0  0  0  0  0  0
    5.0100    3.4021   -0.5315 C   0  0  0  0  0  0  0  0  0  0  0  0
    4.4461    4.2994   -0.8264 H   0  0  0  0  0  0  0  0  0  0  0  0
    6.3831    3.4984   -0.2680 C   0  0  0  0  0  0  0  0  0  0  0  0
    6.9022    4.4650   -0.3549 H   0  0  0  0  0  0  0  0  0  0  0  0
   -1.0695   -1.1171   -0.4305 N   0  0  0  0  0  2  0  0  0  0  0  0
    7.2916    0.1080    0.6133 N   0  0  0  0  0  0  0  0  0  0  0  0
    4.2429   -2.5275   -1.0831 O   0  0  0  0  0  0  0  0  0  0  0  0
  2 44  1  0  0  0  0
  2  3  1  0  0  0  0
  3  4  1  0  0  0  0
  5  3  2  0  0  0  0
  5  6  1  0  0  0  0
  7  5  1  0  0  0  0
  8 10  1  0  0  0  0
  8  7  2  0  0  0  0
  9  8  1  0  0  0  0
 10  2  2  0  0  0  0
 11 10  1  0  0  0  0
 12 14  1  0  0  0  0
 13 12  1  0  0  0  0
 15 12  1  0  0  0  0
 15 17  1  0  0  0  0
 16 15  1  0  0  0  0
 18 15  1  0  0  0  0
 18 21  1  0  0  0  0
 19 18  1  0  0  0  0
 20 18  1  0  0  0  0
 21 22  1  0  0  0  0
 21 23  1  0  0  0  0
 24 45  1  0  0  0  0
 25 24  1  0  0  0  0
 25 26  1  0  0  0  0
 26 34  2  0  0  0  0
 26 27  1  0  0  0  0
 27 28  2  0  0  0  0
 28 30  1  0  0  0  0
 28 29  1  0  0  0  0
 30 31  1  0  0  0  0
 32 33  1  0  0  0  0
 32 30  2  0  0  0  0
 34 32  1  0  0  0  0
 35 34  1  0  0  0  0
 36 37  1  0  0  0  0
 36 24  2  0  0  0  0
 38 36  1  0  0  0  0
 39 38  1  0  0  0  0
 40 38  2  0  0  0  0
 40 42  1  0  0  0  0
 41 40  1  0  0  0  0
 42 25  2  0  0  0  0
 43 42  1  0  0  0  0
 44  1  1  0  0  0  0
 45 27  1  0  0  0  0
 45 21  1  0  0  0  0
 46  7  1  0  0  0  0
 46 12  1  0  0  0  0
M  END
