20
 OpenBabel05122313113D

 32 33  0  0  1  0  0  0  0  0999 V2000
   -1.9422    2.1364    0.4719 O   0  0  0  0  0  0  0  0  0  0  0  0
    3.2606    1.6268   -0.9432 C   0  0  0  0  0  0  0  0  0  0  0  0
    4.1153    1.2324   -1.5125 H   0  0  0  0  0  0  0  0  0  0  0  0
   -0.3679    0.9216   -0.8419 C   0  0  2  0  0  3  0  0  0  0  0  0
   -2.6887    0.2575   -0.6274 N   0  0  0  0  0  0  0  0  0  0  0  0
   -2.3580   -0.6011   -1.0695 H   0  0  0  0  0  0  0  0  0  0  0  0
   -1.7327    1.1681   -0.2702 C   0  0  0  0  0  0  0  0  0  0  0  0
    1.0269    2.6639    0.5501 C   0  0  0  0  0  0  0  0  0  0  0  0
    0.1571    3.0504    1.0968 H   0  0  0  0  0  0  0  0  0  0  0  0
    2.3186    3.1320    0.7529 C   0  0  0  0  0  0  0  0  0  0  0  0
    2.4957    3.9245    1.4958 H   0  0  0  0  0  0  0  0  0  0  0  0
   -4.0514    0.1889   -0.0509 C   0  0  0  0  0  0  0  0  0  0  0  0
    0.8217    1.6459   -0.4264 C   0  0  0  0  0  0  0  0  0  0  0  0
   -4.7218   -1.0393   -0.6845 C   0  0  0  0  0  0  0  0  0  0  0  0
   -4.7794   -0.9375   -1.7879 H   0  0  0  0  0  0  0  0  0  0  0  0
   -5.7525   -1.1543   -0.2970 H   0  0  0  0  0  0  0  0  0  0  0  0
   -4.1606   -1.9650   -0.4394 H   0  0  0  0  0  0  0  0  0  0  0  0
    1.4403    0.1359   -2.1036 C   0  0  0  0  0  3  0  0  0  0  0  0
    2.0262   -0.4019   -2.8584 H   0  0  0  0  0  0  0  0  0  0  0  0
    0.0254    0.0468   -1.9207 C   0  0  0  0  0  3  0  0  0  0  0  0
   -0.6463   -0.5757   -2.5244 H   0  0  0  0  0  0  0  0  0  0  0  0
    3.4294    2.6122    0.0209 C   0  0  0  0  0  0  0  0  0  0  0  0
    4.4361    3.0076    0.2232 H   0  0  0  0  0  0  0  0  0  0  0  0
    1.9465    1.1408   -1.2001 C   0  0  0  0  0  0  0  0  0  0  0  0
   -4.8286    1.4670   -0.4115 C   0  0  0  0  0  0  0  0  0  0  0  0
   -4.3226    2.3547    0.0114 H   0  0  0  0  0  0  0  0  0  0  0  0
   -5.8586    1.4129   -0.0056 H   0  0  0  0  0  0  0  0  0  0  0  0
   -4.8921    1.5862   -1.5119 H   0  0  0  0  0  0  0  0  0  0  0  0
   -3.9690    0.0125    1.4786 C   0  0  0  0  0  0  0  0  0  0  0  0
   -3.4123   -0.9119    1.7308 H   0  0  0  0  0  0  0  0  0  0  0  0
   -4.9871   -0.0604    1.9112 H   0  0  0  0  0  0  0  0  0  0  0  0
   -3.4519    0.8775    1.9349 H   0  0  0  0  0  0  0  0  0  0  0  0
  2 22  1  0  0  0  0
  3  2  1  0  0  0  0
  4 13  1  0  0  0  0
  4  7  1  6  0  0  0
  5  7  1  0  0  0  0
  5 12  1  0  0  0  0
  6  5  1  0  0  0  0
  7  1  2  0  0  0  0
  8 10  1  0  0  0  0
  8  9  1  0  0  0  0
 10 11  1  0  0  0  0
 12 29  1  0  0  0  0
 13  8  2  0  0  0  0
 14 17  1  0  0  0  0
 14 16  1  0  0  0  0
 14 12  1  0  0  0  0
 15 14  1  0  0  0  0
 18 20  1  0  0  0  0
 18 24  1  0  0  0  0
 19 18  1  0  0  0  0
 20  4  1  0  0  0  0
 21 20  1  0  0  0  0
 22 23  1  0  0  0  0
 22 10  2  0  0  0  0
 24  2  2  0  0  0  0
 24 13  1  0  0  0  0
 25 12  1  0  0  0  0
 25 27  1  0  0  0  0
 25 26  1  0  0  0  0
 28 25  1  0  0  0  0
 29 30  1  0  0  0  0
 29 31  1  0  0  0  0
 29 32  1  0  0  0  0
M  END
