4
 OpenBabel05122313113D

 23 24  0  0  0  0  0  0  0  0999 V2000
   -2.5341    1.2986    0.0000 S   0  0  0  0  0  0  0  0  0  0  0  0
    0.0519    2.2540   -0.0004 O   0  0  0  0  0  0  0  0  0  0  0  0
   -2.7831   -1.2914   -0.0007 N   0  0  0  0  0  0  0  0  0  0  0  0
    0.2431    0.9279   -0.0003 C   0  0  0  0  0  2  0  0  0  0  0  0
    1.1291    3.1897   -0.0005 C   0  0  0  0  0  0  0  0  0  0  0  0
    0.6569    4.1888    0.0008 H   0  0  0  0  0  0  0  0  0  0  0  0
    1.7546    3.0678   -0.9051 H   0  0  0  0  0  0  0  0  0  0  0  0
    1.7562    3.0661    0.9027 H   0  0  0  0  0  0  0  0  0  0  0  0
   -1.0697    0.3127   -0.0003 C   0  0  0  0  0  0  0  0  0  0  0  0
   -1.4583   -1.0374   -0.0007 C   0  0  0  0  0  0  0  0  0  0  0  0
   -0.7505   -1.8764   -0.0011 H   0  0  0  0  0  0  0  0  0  0  0  0
   -3.4976   -0.1680   -0.0002 C   0  0  0  0  0  0  0  0  0  0  0  0
   -4.9607   -0.1469   -0.0000 C   0  0  0  0  0  0  0  0  0  0  0  0
   -5.6602   -1.3776   -0.0002 C   0  0  0  0  0  0  0  0  0  0  0  0
   -5.0743   -2.3076   -0.0005 H   0  0  0  0  0  0  0  0  0  0  0  0
   -7.0586   -1.3919   -0.0000 C   0  0  0  0  0  0  0  0  0  0  0  0
   -7.5937   -2.3534   -0.0002 H   0  0  0  0  0  0  0  0  0  0  0  0
   -7.7798   -0.1855    0.0003 C   0  0  0  0  0  0  0  0  0  0  0  0
   -8.8802   -0.1999    0.0005 H   0  0  0  0  0  0  0  0  0  0  0  0
   -7.0930    1.0409    0.0005 C   0  0  0  0  0  0  0  0  0  0  0  0
   -7.6534    1.9877    0.0008 H   0  0  0  0  0  0  0  0  0  0  0  0
   -5.6944    1.0621    0.0003 C   0  0  0  0  0  0  0  0  0  0  0  0
   -5.1629    2.0268    0.0005 H   0  0  0  0  0  0  0  0  0  0  0  0
  2  4  1  0  0  0  0
  3 12  2  0  0  0  0
  5  2  1  0  0  0  0
  5  6  1  0  0  0  0
  5  8  1  0  0  0  0
  7  5  1  0  0  0  0
  9  4  1  0  0  0  0
  9  1  1  0  0  0  0
 10  3  1  0  0  0  0
 10  9  2  0  0  0  0
 11 10  1  0  0  0  0
 12 13  1  0  0  0  0
 12  1  1  0  0  0  0
 13 22  1  0  0  0  0
 14 16  1  0  0  0  0
 14 13  2  0  0  0  0
 15 14  1  0  0  0  0
 16 18  2  0  0  0  0
 17 16  1  0  0  0  0
 18 19  1  0  0  0  0
 18 20  1  0  0  0  0
 20 21  1  0  0  0  0
 22 23  1  0  0  0  0
 22 20  2  0  0  0  0
M  END
