5
 OpenBabel05122313113D

 24 25  0  0  0  0  0  0  0  0999 V2000
   -2.4219    1.3773   -0.4296 S   0  0  0  0  0  0  0  0  0  0  0  0
    0.2273    2.3010   -0.0502 O   0  0  0  0  0  0  0  0  0  0  0  0
   -2.6887   -1.2265   -0.6312 N   0  0  0  0  0  0  0  0  0  0  0  0
   -4.7421   -0.0589   -0.8435 N   0  0  0  0  0  0  0  0  0  0  0  0
    0.3141    1.0615   -0.1229 C   0  0  0  0  0  3  0  0  0  0  0  0
   -0.9638    0.3493   -0.3341 C   0  0  0  0  0  0  0  0  0  0  0  0
   -1.3512   -0.9732   -0.4644 C   0  0  0  0  0  0  0  0  0  0  0  0
   -0.6443   -1.8127   -0.4335 H   0  0  0  0  0  0  0  0  0  0  0  0
   -3.3738   -0.0937   -0.6472 C   0  0  0  0  0  0  0  0  0  0  0  0
   -5.4848   -1.3049   -0.6684 C   0  0  0  0  0  0  0  0  0  0  0  0
   -4.8063   -2.1346   -0.9405 H   0  0  0  0  0  0  0  0  0  0  0  0
   -6.3470   -1.2962   -1.3742 H   0  0  0  0  0  0  0  0  0  0  0  0
   -5.9852   -1.4409    0.7778 C   0  0  0  0  0  0  0  0  0  0  0  0
   -5.0989   -1.5650    1.4369 H   0  0  0  0  0  0  0  0  0  0  0  0
   -6.5986   -2.3613    0.8835 H   0  0  0  0  0  0  0  0  0  0  0  0
   -6.7863   -0.2006    1.2034 C   0  0  0  0  0  0  0  0  0  0  0  0
   -7.7364   -0.1631    0.6207 H   0  0  0  0  0  0  0  0  0  0  0  0
   -7.0793   -0.2717    2.2722 H   0  0  0  0  0  0  0  0  0  0  0  0
   -5.9934    1.0904    0.9473 C   0  0  0  0  0  0  0  0  0  0  0  0
   -6.6103    1.9868    1.1716 H   0  0  0  0  0  0  0  0  0  0  0  0
   -5.1045    1.1315    1.6138 H   0  0  0  0  0  0  0  0  0  0  0  0
   -5.5018    1.1360   -0.5080 C   0  0  0  0  0  0  0  0  0  0  0  0
   -6.3745    1.1960   -1.1988 H   0  0  0  0  0  0  0  0  0  0  0  0
   -4.8736    2.0289   -0.6999 H   0  0  0  0  0  0  0  0  0  0  0  0
  1  6  1  0  0  0  0
  3  7  1  0  0  0  0
  4 10  1  0  0  0  0
  4  9  1  0  0  0  0
  4 22  1  0  0  0  0
  5  2  2  0  0  0  0
  6  5  1  0  0  0  0
  7  8  1  0  0  0  0
  7  6  2  0  0  0  0
  9  3  2  0  0  0  0
  9  1  1  0  0  0  0
 10 13  1  0  0  0  0
 11 10  1  0  0  0  0
 12 10  1  0  0  0  0
 13 15  1  0  0  0  0
 13 16  1  0  0  0  0
 13 14  1  0  0  0  0
 16 18  1  0  0  0  0
 17 16  1  0  0  0  0
 19 20  1  0  0  0  0
 19 16  1  0  0  0  0
 19 21  1  0  0  0  0
 22 19  1  0  0  0  0
 23 22  1  0  0  0  0
 24 22  1  0  0  0  0
M  END
