1
 OpenBabel05122313113D

 37 39  0  0  0  0  0  0  0  0999 V2000
    1.6847    0.9679    0.1885 C   0  0  0  0  0  2  0  0  0  0  0  0
    1.6688    2.3361    0.2800 N   0  0  0  0  0  0  0  0  0  0  0  0
    2.9961    0.5814    0.2863 N   0  0  0  0  0  0  0  0  0  0  0  0
    2.9883    2.8817    0.6518 C   0  0  0  0  0  0  0  0  0  0  0  0
    2.9830    3.1480    1.7327 H   0  0  0  0  0  0  0  0  0  0  0  0
    3.2290    3.7955    0.0753 H   0  0  0  0  0  0  0  0  0  0  0  0
    3.9294    1.7149    0.3369 C   0  0  0  0  0  0  0  0  0  0  0  0
    4.4387    1.8523   -0.6411 H   0  0  0  0  0  0  0  0  0  0  0  0
    4.7043    1.5573    1.1126 H   0  0  0  0  0  0  0  0  0  0  0  0
    0.5209    3.1689    0.4448 C   0  0  0  0  0  0  0  0  0  0  0  0
    0.2871    4.2144   -0.4850 C   0  0  0  0  0  0  0  0  0  0  0  0
   -0.8340    5.0414   -0.2722 C   0  0  0  0  0  0  0  0  0  0  0  0
   -1.0363    5.8533   -0.9888 H   0  0  0  0  0  0  0  0  0  0  0  0
   -1.7003    4.8368    0.8121 C   0  0  0  0  0  0  0  0  0  0  0  0
   -2.5731    5.4937    0.9469 H   0  0  0  0  0  0  0  0  0  0  0  0
   -1.4593    3.7867    1.7116 C   0  0  0  0  0  0  0  0  0  0  0  0
   -2.1431    3.6043    2.5539 H   0  0  0  0  0  0  0  0  0  0  0  0
   -0.3434    2.9590    1.5352 C   0  0  0  0  0  0  0  0  0  0  0  0
   -0.1543    2.1065    2.2059 H   0  0  0  0  0  0  0  0  0  0  0  0
    1.1773    4.4058   -1.6851 C   0  0  0  0  0  0  0  0  0  0  0  0
    2.0830    5.0029   -1.4403 H   0  0  0  0  0  0  0  0  0  0  0  0
    0.6461    4.9448   -2.4929 H   0  0  0  0  0  0  0  0  0  0  0  0
    1.5272    3.4312   -2.0811 H   0  0  0  0  0  0  0  0  0  0  0  0
    3.4055   -0.7811    0.3865 C   0  0  0  0  0  0  0  0  0  0  0  0
    4.3013   -1.3530   -0.5525 C   0  0  0  0  0  0  0  0  0  0  0  0
    4.6341   -2.7108   -0.3887 C   0  0  0  0  0  0  0  0  0  0  0  0
    5.3163   -3.1737   -1.1191 H   0  0  0  0  0  0  0  0  0  0  0  0
    4.0878   -3.4924    0.6408 C   0  0  0  0  0  0  0  0  0  0  0  0
    4.3601   -4.5554    0.7248 H   0  0  0  0  0  0  0  0  0  0  0  0
    3.1918   -2.9143    1.5504 C   0  0  0  0  0  0  0  0  0  0  0  0
    2.7505   -3.5096    2.3639 H   0  0  0  0  0  0  0  0  0  0  0  0
    2.8662   -1.5554    1.4323 C   0  0  0  0  0  0  0  0  0  0  0  0
    2.1726   -1.0814    2.1429 H   0  0  0  0  0  0  0  0  0  0  0  0
    4.8000   -0.5781   -1.7415 C   0  0  0  0  0  0  0  0  0  0  0  0
    5.5572    0.1870   -1.4680 H   0  0  0  0  0  0  0  0  0  0  0  0
    3.9464   -0.0673   -2.2334 H   0  0  0  0  0  0  0  0  0  0  0  0
    5.2682   -1.2545   -2.4813 H   0  0  0  0  0  0  0  0  0  0  0  0
  1  2  1  0  0  0  0
  1  3  1  0  0  0  0
  2 10  1  0  0  0  0
  2  4  1  0  0  0  0
  3  7  1  0  0  0  0
  3 24  1  0  0  0  0
  4  5  1  0  0  0  0
  6  4  1  0  0  0  0
  7  4  1  0  0  0  0
  7  9  1  0  0  0  0
  8  7  1  0  0  0  0
 10 18  1  0  0  0  0
 11 12  1  0  0  0  0
 11 10  2  0  0  0  0
 12 14  2  0  0  0  0
 13 12  1  0  0  0  0
 14 15  1  0  0  0  0
 14 16  1  0  0  0  0
 16 17  1  0  0  0  0
 18 16  2  0  0  0  0
 18 19  1  0  0  0  0
 20 21  1  0  0  0  0
 20 11  1  0  0  0  0
 22 20  1  0  0  0  0
 23 20  1  0  0  0  0
 24 32  1  0  0  0  0
 25 26  1  0  0  0  0
 25 24  2  0  0  0  0
 26 28  2  0  0  0  0
 27 26  1  0  0  0  0
 28 29  1  0  0  0  0
 28 30  1  0  0  0  0
 30 31  1  0  0  0  0
 32 30  2  0  0  0  0
 32 33  1  0  0  0  0
 34 35  1  0  0  0  0
 34 25  1  0  0  0  0
 36 34  1  0  0  0  0
 37 34  1  0  0  0  0
M  END
