20
 OpenBabel05122313113D

 30 30  0  0  1  0  0  0  0  0999 V2000
    0.3894    1.8752    0.0701 N   0  0  0  0  0  0  0  0  0  0  0  0
   -1.0483    2.1174    0.4197 C   0  0  0  0  0  0  0  0  0  0  0  0
   -1.3386    3.1392    0.0922 H   0  0  0  0  0  0  0  0  0  0  0  0
   -1.1380    2.0922    1.5235 H   0  0  0  0  0  0  0  0  0  0  0  0
   -1.9221    1.0434   -0.2092 C   0  0  2  0  0  0  0  0  0  0  0  0
   -1.8435    1.1318   -1.3162 H   0  0  0  0  0  0  0  0  0  0  0  0
   -3.4195    1.1403    0.1422 C   0  0  0  0  0  0  0  0  0  0  0  0
   -3.8170    2.1389   -0.1386 H   0  0  0  0  0  0  0  0  0  0  0  0
   -3.5361    1.0441    1.2448 H   0  0  0  0  0  0  0  0  0  0  0  0
   -4.2043    0.0272   -0.5682 C   0  0  0  0  0  0  0  0  0  0  0  0
   -5.2731    0.0676   -0.2726 H   0  0  0  0  0  0  0  0  0  0  0  0
   -4.1774    0.2155   -1.6647 H   0  0  0  0  0  0  0  0  0  0  0  0
   -3.6235   -1.3654   -0.2827 C   0  0  0  0  0  0  0  0  0  0  0  0
   -4.1728   -2.1368   -0.8610 H   0  0  0  0  0  0  0  0  0  0  0  0
   -3.7690   -1.6125    0.7921 H   0  0  0  0  0  0  0  0  0  0  0  0
   -2.1159   -1.4440   -0.6049 C   0  0  0  0  0  0  0  0  0  0  0  0
   -1.9541   -1.2949   -1.6945 H   0  0  0  0  0  0  0  0  0  0  0  0
   -1.6891   -2.4313   -0.3458 H   0  0  0  0  0  0  0  0  0  0  0  0
   -1.4089   -0.3473    0.1611 C   0  0  2  0  0  3  0  0  0  0  0  0
   -0.8571   -0.5889    1.4547 C   0  0  0  0  0  3  0  0  0  0  0  0
   -0.8157   -1.6261    1.8251 H   0  0  0  0  0  0  0  0  0  0  0  0
   -0.8432    0.1851    2.2408 H   0  0  0  0  0  0  0  0  0  0  0  0
    1.2923    2.5361    1.0430 C   0  0  0  0  0  0  0  0  0  0  0  0
    2.3350    2.3044    0.7571 H   0  0  0  0  0  0  0  0  0  0  0  0
    1.1005    2.1325    2.0543 H   0  0  0  0  0  0  0  0  0  0  0  0
    1.1237    3.6356    1.0395 H   0  0  0  0  0  0  0  0  0  0  0  0
    0.6755    2.3954   -1.2938 C   0  0  0  0  0  0  0  0  0  0  0  0
    1.7126    2.1222   -1.5598 H   0  0  0  0  0  0  0  0  0  0  0  0
    0.5384    3.4988   -1.3092 H   0  0  0  0  0  0  0  0  0  0  0  0
   -0.0084    1.9257   -2.0228 H   0  0  0  0  0  0  0  0  0  0  0  0
  1  2  1  0  0  0  0
  1 23  1  0  0  0  0
  2  4  1  0  0  0  0
  3  2  1  0  0  0  0
  5  6  1  6  0  0  0
  5  7  1  0  0  0  0
  5 19  1  0  0  0  0
  5  2  1  0  0  0  0
  7  9  1  0  0  0  0
  8  7  1  0  0  0  0
 10 13  1  0  0  0  0
 10 11  1  0  0  0  0
 10  7  1  0  0  0  0
 12 10  1  0  0  0  0
 13 15  1  0  0  0  0
 14 13  1  0  0  0  0
 16 18  1  0  0  0  0
 16 13  1  0  0  0  0
 16 19  1  0  0  0  0
 17 16  1  0  0  0  0
 19 20  1  1  0  0  0
 20 21  1  0  0  0  0
 20 22  1  0  0  0  0
 23 25  1  0  0  0  0
 24 23  1  0  0  0  0
 26 23  1  0  0  0  0
 27  1  1  0  0  0  0
 28 27  1  0  0  0  0
 29 27  1  0  0  0  0
 30 27  1  0  0  0  0
M  END
