31
 OpenBabel05122313113D

 60 63  0  0  0  0  0  0  0  0999 V2000
   -1.6862    0.1481    0.4136 P   0  0  0  0  0  0  0  0  0  0  0  0
    1.6439    0.3928    0.6859 P   0  0  0  0  0  0  0  0  0  0  0  0
   -1.9923    1.8562   -0.1751 C   0  0  0  0  0  0  0  0  0  0  0  0
   -2.1436    2.9349    0.7174 C   0  0  0  0  0  0  0  0  0  0  0  0
   -2.0360    2.7868    1.8008 H   0  0  0  0  0  0  0  0  0  0  0  0
   -2.4303    4.2186    0.2274 C   0  0  0  0  0  0  0  0  0  0  0  0
   -2.5407    5.0560    0.9321 H   0  0  0  0  0  0  0  0  0  0  0  0
   -2.5781    4.4335   -1.1508 C   0  0  0  0  0  0  0  0  0  0  0  0
   -2.8096    5.4400   -1.5303 H   0  0  0  0  0  0  0  0  0  0  0  0
   -2.4326    3.3601   -2.0463 C   0  0  0  0  0  0  0  0  0  0  0  0
   -2.5543    3.5222   -3.1278 H   0  0  0  0  0  0  0  0  0  0  0  0
   -2.1372    2.0799   -1.5609 C   0  0  0  0  0  0  0  0  0  0  0  0
   -2.0346    1.2389   -2.2633 H   0  0  0  0  0  0  0  0  0  0  0  0
   -3.3282   -0.6602    0.1233 C   0  0  0  0  0  0  0  0  0  0  0  0
   -4.4740    0.0924   -0.2102 C   0  0  0  0  0  0  0  0  0  0  0  0
   -4.4009    1.1798   -0.3520 H   0  0  0  0  0  0  0  0  0  0  0  0
   -5.7178   -0.5407   -0.3621 C   0  0  0  0  0  0  0  0  0  0  0  0
   -6.6015    0.0591   -0.6267 H   0  0  0  0  0  0  0  0  0  0  0  0
   -5.8371   -1.9258   -0.1763 C   0  0  0  0  0  0  0  0  0  0  0  0
   -6.8136   -2.4180   -0.2967 H   0  0  0  0  0  0  0  0  0  0  0  0
   -4.7038   -2.6814    0.1649 C   0  0  0  0  0  0  0  0  0  0  0  0
   -4.7897   -3.7677    0.3179 H   0  0  0  0  0  0  0  0  0  0  0  0
   -3.4581   -2.0545    0.3097 C   0  0  0  0  0  0  0  0  0  0  0  0
   -2.5738   -2.6531    0.5687 H   0  0  0  0  0  0  0  0  0  0  0  0
   -1.5765    0.2162    2.2554 C   0  0  0  0  0  0  0  0  0  0  0  0
   -0.8144    0.9829    2.5055 H   0  0  0  0  0  0  0  0  0  0  0  0
   -2.5408    0.5276    2.7043 H   0  0  0  0  0  0  0  0  0  0  0  0
   -1.1447   -1.1948    2.6611 C   0  0  0  0  0  0  0  0  0  0  0  0
   -2.0302   -1.8576    2.5866 H   0  0  0  0  0  0  0  0  0  0  0  0
   -0.8628   -1.2016    3.7378 H   0  0  0  0  0  0  0  0  0  0  0  0
    0.0127   -1.7783    1.8055 C   0  0  0  0  0  3  0  0  0  0  0  0
   -0.1567   -2.8696    1.7030 H   0  0  0  0  0  0  0  0  0  0  0  0
    1.3740   -1.5909    2.4942 C   0  0  0  0  0  0  0  0  0  0  0  0
    1.3222   -1.9382    3.5518 H   0  0  0  0  0  0  0  0  0  0  0  0
    2.1258   -2.2387    1.9964 H   0  0  0  0  0  0  0  0  0  0  0  0
    1.8264   -0.1297    2.4579 C   0  0  0  0  0  0  0  0  0  0  0  0
    2.8610    0.0381    2.8161 H   0  0  0  0  0  0  0  0  0  0  0  0
    1.1558    0.5013    3.0745 H   0  0  0  0  0  0  0  0  0  0  0  0
    1.3592    2.2006    0.6405 C   0  0  0  0  0  0  0  0  0  0  0  0
    1.5875    3.0234    1.7614 C   0  0  0  0  0  0  0  0  0  0  0  0
    1.9054    2.5895    2.7210 H   0  0  0  0  0  0  0  0  0  0  0  0
    1.4285    4.4142    1.6547 C   0  0  0  0  0  0  0  0  0  0  0  0
    1.6054    5.0511    2.5343 H   0  0  0  0  0  0  0  0  0  0  0  0
    1.0645    4.9916    0.4287 C   0  0  0  0  0  0  0  0  0  0  0  0
    0.9523    6.0830    0.3468 H   0  0  0  0  0  0  0  0  0  0  0  0
    0.8384    4.1760   -0.6919 C   0  0  0  0  0  0  0  0  0  0  0  0
    0.5389    4.6229   -1.6508 H   0  0  0  0  0  0  0  0  0  0  0  0
    0.9696    2.7857   -0.5833 C   0  0  0  0  0  0  0  0  0  0  0  0
    0.7529    2.1411   -1.4486 H   0  0  0  0  0  0  0  0  0  0  0  0
    3.3624    0.2487    0.0058 C   0  0  0  0  0  0  0  0  0  0  0  0
    4.2262   -0.7620    0.4831 C   0  0  0  0  0  0  0  0  0  0  0  0
    3.9045   -1.4394    1.2873 H   0  0  0  0  0  0  0  0  0  0  0  0
    5.5084   -0.9204   -0.0637 C   0  0  0  0  0  0  0  0  0  0  0  0
    6.1721   -1.7066    0.3265 H   0  0  0  0  0  0  0  0  0  0  0  0
    5.9454   -0.0775   -1.0979 C   0  0  0  0  0  0  0  0  0  0  0  0
    6.9512   -0.2021   -1.5254 H   0  0  0  0  0  0  0  0  0  0  0  0
    5.0956    0.9322   -1.5738 C   0  0  0  0  0  0  0  0  0  0  0  0
    5.4348    1.6085   -2.3727 H   0  0  0  0  0  0  0  0  0  0  0  0
    3.8142    1.0983   -1.0247 C   0  0  0  0  0  0  0  0  0  0  0  0
    3.1748    1.9147   -1.3900 H   0  0  0  0  0  0  0  0  0  0  0  0
  1 25  1  0  0  0  0
  2 36  1  0  0  0  0
  3  1  1  0  0  0  0
  3  4  1  0  0  0  0
  4  5  1  0  0  0  0
  6  4  2  0  0  0  0
  6  7  1  0  0  0  0
  8  6  1  0  0  0  0
  9  8  1  0  0  0  0
 10 12  1  0  0  0  0
 10  8  2  0  0  0  0
 11 10  1  0  0  0  0
 12  3  2  0  0  0  0
 13 12  1  0  0  0  0
 14 23  1  0  0  0  0
 14  1  1  0  0  0  0
 15 14  2  0  0  0  0
 16 15  1  0  0  0  0
 17 15  1  0  0  0  0
 17 19  2  0  0  0  0
 18 17  1  0  0  0  0
 19 21  1  0  0  0  0
 20 19  1  0  0  0  0
 21 23  2  0  0  0  0
 21 22  1  0  0  0  0
 23 24  1  0  0  0  0
 25 26  1  0  0  0  0
 25 28  1  0  0  0  0
 25 27  1  0  0  0  0
 28 30  1  0  0  0  0
 29 28  1  0  0  0  0
 31 33  1  0  0  0  0
 31 28  1  0  0  0  0
 32 31  1  0  0  0  0
 33 34  1  0  0  0  0
 35 33  1  0  0  0  0
 36 33  1  0  0  0  0
 36 37  1  0  0  0  0
 36 38  1  0  0  0  0
 39  2  1  0  0  0  0
 39 40  1  0  0  0  0
 40 41  1  0  0  0  0
 42 40  2  0  0  0  0
 42 43  1  0  0  0  0
 44 42  1  0  0  0  0
 45 44  1  0  0  0  0
 46 48  1  0  0  0  0
 46 44  2  0  0  0  0
 47 46  1  0  0  0  0
 48 39  2  0  0  0  0
 49 48  1  0  0  0  0
 50 51  1  0  0  0  0
 50  2  1  0  0  0  0
 51 52  1  0  0  0  0
 53 54  1  0  0  0  0
 53 51  2  0  0  0  0
 55 53  1  0  0  0  0
 56 55  1  0  0  0  0
 57 55  2  0  0  0  0
 57 59  1  0  0  0  0
 58 57  1  0  0  0  0
 59 50  2  0  0  0  0
 60 59  1  0  0  0  0
M  END
