15
 OpenBabel05122313113D

 26 26  0  0  1  0  0  0  0  0999 V2000
   -3.2260    0.1639   -0.4985 N   0  0  0  0  0  0  0  0  0  0  0  0
   -0.4519    1.0183   -1.0324 C   0  0  0  0  0  0  0  0  0  0  0  0
   -0.9574    0.7508   -1.9700 H   0  0  0  0  0  0  0  0  0  0  0  0
   -4.2283   -0.6996   -1.0900 C   0  0  0  0  0  0  0  0  0  0  0  0
   -4.8414   -1.2748   -0.3461 H   0  0  0  0  0  0  0  0  0  0  0  0
   -3.7457   -1.4332   -1.7677 H   0  0  0  0  0  0  0  0  0  0  0  0
   -4.9352   -0.0925   -1.6930 H   0  0  0  0  0  0  0  0  0  0  0  0
   -2.0908   -0.5532    0.1000 C   0  0  1  0  0  0  0  0  0  0  0  0
   -1.8045   -1.3205   -0.6514 H   0  0  0  0  0  0  0  0  0  0  0  0
    1.3093    2.2328    0.1919 C   0  0  0  0  0  3  0  0  0  0  0  0
    2.1900    2.8891    0.1869 H   0  0  0  0  0  0  0  0  0  0  0  0
   -0.9095    0.4120    0.1868 C   0  0  0  0  0  0  0  0  0  0  0  0
    0.6452    1.9085   -1.0343 C   0  0  0  0  0  0  0  0  0  0  0  0
    1.0165    2.3187   -1.9836 H   0  0  0  0  0  0  0  0  0  0  0  0
    0.8613    1.6502    1.3997 C   0  0  0  0  0  3  0  0  0  0  0  0
    1.3933    1.8546    2.3391 H   0  0  0  0  0  0  0  0  0  0  0  0
   -0.2481    0.7442    1.3973 C   0  0  0  0  0  0  0  0  0  0  0  0
   -0.5512    0.2684    2.3383 H   0  0  0  0  0  0  0  0  0  0  0  0
   -2.3848   -1.2951    1.4119 C   0  0  0  0  0  0  0  0  0  0  0  0
   -3.2193   -2.0092    1.2698 H   0  0  0  0  0  0  0  0  0  0  0  0
   -2.6691   -0.6059    2.2322 H   0  0  0  0  0  0  0  0  0  0  0  0
   -1.5001   -1.8765    1.7383 H   0  0  0  0  0  0  0  0  0  0  0  0
   -3.7977    1.2089    0.3298 C   0  0  0  0  0  0  0  0  0  0  0  0
   -4.4782    1.8375   -0.2811 H   0  0  0  0  0  0  0  0  0  0  0  0
   -2.9965    1.8670    0.7232 H   0  0  0  0  0  0  0  0  0  0  0  0
   -4.3915    0.8311    1.2030 H   0  0  0  0  0  0  0  0  0  0  0  0
  1  8  1  0  0  0  0
  1 23  1  0  0  0  0
  2 12  1  0  0  0  0
  3  2  1  0  0  0  0
  4  1  1  0  0  0  0
  4  5  1  0  0  0  0
  6  4  1  0  0  0  0
  7  4  1  0  0  0  0
  8  9  1  6  0  0  0
  8 12  1  0  0  0  0
  8 19  1  0  0  0  0
 10 15  1  0  0  0  0
 11 10  1  0  0  0  0
 12 17  2  0  0  0  0
 13  2  2  0  0  0  0
 13 10  1  0  0  0  0
 14 13  1  0  0  0  0
 15 16  1  0  0  0  0
 17 15  1  0  0  0  0
 17 18  1  0  0  0  0
 19 22  1  0  0  0  0
 19 21  1  0  0  0  0
 20 19  1  0  0  0  0
 23 25  1  0  0  0  0
 23 26  1  0  0  0  0
 24 23  1  0  0  0  0
M  END
