1
 OpenBabel05122313113D

 26 28  0  0  1  0  0  0  0  0999 V2000
   -0.6183    0.2470   -1.3187 C   0  0  0  0  0  3  0  0  0  0  0  0
   -0.9489    0.0593   -2.4759 O   0  0  0  0  0  0  0  0  0  0  0  0
    0.4222    1.2195   -0.9143 C   0  0  0  0  0  0  0  0  0  0  0  0
    1.6911    1.0500   -0.4392 C   0  0  0  0  0  0  0  0  0  0  0  0
    2.1676    2.4616   -0.0005 C   0  0  2  0  0  0  0  0  0  0  0  0
    3.2592    2.5670    0.1315 H   0  0  0  0  0  0  0  0  0  0  0  0
    1.2901    2.8947    1.1849 C   0  0  0  0  0  0  0  0  0  0  0  0
    1.6299    2.9615    2.2269 H   0  0  0  0  0  0  0  0  0  0  0  0
    0.0388    3.0616    0.7072 C   0  0  0  0  0  0  0  0  0  0  0  0
   -0.8713    3.3144    1.2670 H   0  0  0  0  0  0  0  0  0  0  0  0
    0.0870    2.7317   -0.7941 C   0  0  1  0  0  0  0  0  0  0  0  0
   -0.7673    3.0700   -1.4084 H   0  0  0  0  0  0  0  0  0  0  0  0
    1.4968    3.2953   -1.1264 C   0  0  0  0  0  0  0  0  0  0  0  0
    1.8480    3.0235   -2.1413 H   0  0  0  0  0  0  0  0  0  0  0  0
    1.5707    4.3892   -0.9612 H   0  0  0  0  0  0  0  0  0  0  0  0
    2.4473   -0.1818   -0.2474 C   0  0  0  0  0  0  0  0  0  0  0  0
    3.4708   -0.2602    0.7290 C   0  0  0  0  0  0  0  0  0  0  0  0
    3.7105    0.6259    1.3351 H   0  0  0  0  0  0  0  0  0  0  0  0
    4.1533   -1.4610    0.9592 C   0  0  0  0  0  0  0  0  0  0  0  0
    4.9370   -1.5024    1.7311 H   0  0  0  0  0  0  0  0  0  0  0  0
    3.8353   -2.6110    0.2180 C   0  0  0  0  0  0  0  0  0  0  0  0
    4.3713   -3.5545    0.4017 H   0  0  0  0  0  0  0  0  0  0  0  0
    2.8335   -2.5459   -0.7647 C   0  0  0  0  0  0  0  0  0  0  0  0
    2.5789   -3.4380   -1.3565 H   0  0  0  0  0  0  0  0  0  0  0  0
    2.1552   -1.3452   -1.0029 C   0  0  0  0  0  0  0  0  0  0  0  0
    1.3999   -1.2941   -1.7999 H   0  0  0  0  0  0  0  0  0  0  0  0
  1  3  1  0  0  0  0
  2  1  2  0  0  0  0
  3 11  1  0  0  0  0
  3  4  2  0  0  0  0
  4 16  1  0  0  0  0
  4  5  1  0  0  0  0
  5  6  1  1  0  0  0
  5  7  1  0  0  0  0
  7  8  1  0  0  0  0
  9  7  2  0  0  0  0
  9 10  1  0  0  0  0
 11 12  1  6  0  0  0
 11  9  1  0  0  0  0
 13 15  1  0  0  0  0
 13 11  1  0  0  0  0
 13  5  1  0  0  0  0
 14 13  1  0  0  0  0
 16 17  1  0  0  0  0
 17 19  2  0  0  0  0
 17 18  1  0  0  0  0
 19 20  1  0  0  0  0
 21 22  1  0  0  0  0
 21 19  1  0  0  0  0
 23 21  2  0  0  0  0
 24 23  1  0  0  0  0
 25 23  1  0  0  0  0
 25 16  2  0  0  0  0
 26 25  1  0  0  0  0
M  END
