2
 OpenBabel05122313113D

 28 29  0  0  1  0  0  0  0  0999 V2000
    2.9176   -1.1113   -0.0189 Si  0  0  0  0  0  0  0  0  0  0  0  0
   -0.3510   -0.2240   -1.1190 C   0  0  0  0  0  3  0  0  0  0  0  0
   -0.3156   -0.9286   -2.1102 O   0  0  0  0  0  0  0  0  0  0  0  0
    0.7149    0.7503   -0.7773 C   0  0  0  0  0  0  0  0  0  0  0  0
    1.9897    0.4841   -0.3789 C   0  0  0  0  0  0  0  0  0  0  0  0
    2.6121    1.8814   -0.0588 C   0  0  2  0  0  0  0  0  0  0  0  0
    3.7168    1.9016   -0.0118 H   0  0  0  0  0  0  0  0  0  0  0  0
    1.8800    2.4456    1.1660 C   0  0  0  0  0  0  0  0  0  0  0  0
    2.3124    2.5282    2.1718 H   0  0  0  0  0  0  0  0  0  0  0  0
    0.6112    2.6988    0.7847 C   0  0  0  0  0  0  0  0  0  0  0  0
   -0.2222    3.0441    1.4104 H   0  0  0  0  0  0  0  0  0  0  0  0
    0.5014    2.2912   -0.6936 C   0  0  1  0  0  0  0  0  0  0  0  0
   -0.3649    2.6861   -1.2529 H   0  0  0  0  0  0  0  0  0  0  0  0
    1.9189    2.7146   -1.1710 C   0  0  0  0  0  0  0  0  0  0  0  0
    2.0934    3.8053   -1.0742 H   0  0  0  0  0  0  0  0  0  0  0  0
    2.1608    2.3651   -2.1943 H   0  0  0  0  0  0  0  0  0  0  0  0
    3.5230   -0.9716    1.7731 C   0  0  0  0  0  0  0  0  0  0  0  0
    4.1917   -0.0971    1.9106 H   0  0  0  0  0  0  0  0  0  0  0  0
    4.0853   -1.8792    2.0754 H   0  0  0  0  0  0  0  0  0  0  0  0
    2.6600   -0.8529    2.4601 H   0  0  0  0  0  0  0  0  0  0  0  0
    4.4000   -1.2033   -1.1953 C   0  0  0  0  0  0  0  0  0  0  0  0
    5.0342   -2.0837   -0.9621 H   0  0  0  0  0  0  0  0  0  0  0  0
    5.0359   -0.2977   -1.1182 H   0  0  0  0  0  0  0  0  0  0  0  0
    4.0600   -1.2932   -2.2471 H   0  0  0  0  0  0  0  0  0  0  0  0
    1.8373   -2.6457   -0.2058 C   0  0  0  0  0  0  0  0  0  0  0  0
    1.0343   -2.6658    0.5572 H   0  0  0  0  0  0  0  0  0  0  0  0
    2.4543   -3.5574   -0.0661 H   0  0  0  0  0  0  0  0  0  0  0  0
    1.3593   -2.6942   -1.2034 H   0  0  0  0  0  0  0  0  0  0  0  0
  1 17  1  0  0  0  0
  2  4  1  0  0  0  0
  3  2  2  0  0  0  0
  4 12  1  0  0  0  0
  4  5  2  0  0  0  0
  5  6  1  0  0  0  0
  5  1  1  0  0  0  0
  6  7  1  1  0  0  0
  6  8  1  0  0  0  0
  8  9  1  0  0  0  0
 10  8  2  0  0  0  0
 10 11  1  0  0  0  0
 12 13  1  6  0  0  0
 12 10  1  0  0  0  0
 14 15  1  0  0  0  0
 14 12  1  0  0  0  0
 14  6  1  0  0  0  0
 16 14  1  0  0  0  0
 17 18  1  0  0  0  0
 17 19  1  0  0  0  0
 17 20  1  0  0  0  0
 21 23  1  0  0  0  0
 21 22  1  0  0  0  0
 21  1  1  0  0  0  0
 24 21  1  0  0  0  0
 25 27  1  0  0  0  0
 25  1  1  0  0  0  0
 25 26  1  0  0  0  0
 28 25  1  0  0  0  0
M  END
