42
 OpenBabel05122313113D

 47 48  0  0  1  0  0  0  0  0999 V2000
   -2.6309   -0.6558    0.1504 N   0  0  0  0  0  0  0  0  0  0  0  0
   -1.9052    1.5777    0.0147 N   0  0  0  0  0  0  0  0  0  0  0  0
   -1.4962    0.1975   -0.1499 B   0  0  0  0  0  0  0  0  0  0  0  0
   -3.7505    0.2024    0.5524 C   0  0  0  0  0  0  0  0  0  0  0  0
   -4.2834   -0.1885    1.4460 H   0  0  0  0  0  0  0  0  0  0  0  0
   -4.5024    0.2907   -0.2655 H   0  0  0  0  0  0  0  0  0  0  0  0
   -3.1214    1.5654    0.8310 C   0  0  0  0  0  0  0  0  0  0  0  0
   -3.8256    2.3786    0.5706 H   0  0  0  0  0  0  0  0  0  0  0  0
   -2.8762    1.6804    1.9164 H   0  0  0  0  0  0  0  0  0  0  0  0
   -2.9304   -2.0942   -0.0686 C   0  0  0  0  0  0  0  0  0  0  0  0
   -2.0338   -2.7185   -1.1547 C   0  0  0  0  0  0  0  0  0  0  0  0
   -2.0706   -2.1176   -2.0849 H   0  0  0  0  0  0  0  0  0  0  0  0
   -2.3988   -3.7384   -1.3884 H   0  0  0  0  0  0  0  0  0  0  0  0
   -0.9794   -2.8073   -0.8461 H   0  0  0  0  0  0  0  0  0  0  0  0
   -2.7703   -2.8653    1.2600 C   0  0  0  0  0  0  0  0  0  0  0  0
   -1.7228   -2.8264    1.6154 H   0  0  0  0  0  0  0  0  0  0  0  0
   -3.0543   -3.9314    1.1432 H   0  0  0  0  0  0  0  0  0  0  0  0
   -3.4145   -2.4269    2.0491 H   0  0  0  0  0  0  0  0  0  0  0  0
   -4.3872   -2.2683   -0.5618 C   0  0  0  0  0  0  0  0  0  0  0  0
   -5.1361   -1.9403    0.1841 H   0  0  0  0  0  0  0  0  0  0  0  0
   -4.5753   -3.3404   -0.7651 H   0  0  0  0  0  0  0  0  0  0  0  0
   -4.5613   -1.7092   -1.5030 H   0  0  0  0  0  0  0  0  0  0  0  0
   -1.1974    2.8616   -0.1906 C   0  0  0  0  0  0  0  0  0  0  0  0
   -2.2039    4.0280   -0.2738 C   0  0  0  0  0  0  0  0  0  0  0  0
   -2.9821    3.8356   -1.0404 H   0  0  0  0  0  0  0  0  0  0  0  0
   -1.6624    4.9496   -0.5635 H   0  0  0  0  0  0  0  0  0  0  0  0
   -2.7020    4.2323    0.6945 H   0  0  0  0  0  0  0  0  0  0  0  0
   -0.2170    3.1366    0.9657 C   0  0  0  0  0  0  0  0  0  0  0  0
   -0.7502    3.1519    1.9381 H   0  0  0  0  0  0  0  0  0  0  0  0
    0.2934    4.1128    0.8392 H   0  0  0  0  0  0  0  0  0  0  0  0
    0.5535    2.3484    1.0092 H   0  0  0  0  0  0  0  0  0  0  0  0
   -0.4610    2.8053   -1.5379 C   0  0  0  0  0  0  0  0  0  0  0  0
    0.2605    1.9747   -1.5596 H   0  0  0  0  0  0  0  0  0  0  0  0
    0.1069    3.7394   -1.7156 H   0  0  0  0  0  0  0  0  0  0  0  0
   -1.1864    2.6644   -2.3642 H   0  0  0  0  0  0  0  0  0  0  0  0
   -0.0770   -0.4544   -0.4604 C   0  0  2  0  0  3  0  0  0  0  0  0
    0.7292   -0.5018   -1.6531 C   0  0  0  0  0  0  0  0  0  0  0  0
    0.5920    0.1346   -2.5360 H   0  0  0  0  0  0  0  0  0  0  0  0
    1.7061   -1.5408   -1.5468 C   0  0  0  0  0  0  0  0  0  0  0  0
    2.4403   -1.8176   -2.3133 H   0  0  0  0  0  0  0  0  0  0  0  0
    1.5622   -2.1612   -0.2522 C   0  0  1  0  0  3  0  0  0  0  0  0
    0.4965   -1.4659    0.4065 C   0  0  0  0  0  3  0  0  0  0  0  0
    0.1318   -1.6991    1.4145 H   0  0  0  0  0  0  0  0  0  0  0  0
    2.3029   -3.3561    0.2669 C   0  0  0  0  0  0  0  0  0  0  0  0
    1.8042   -4.2908   -0.0665 H   0  0  0  0  0  0  0  0  0  0  0  0
    2.3249   -3.3616    1.3736 H   0  0  0  0  0  0  0  0  0  0  0  0
    3.3481   -3.3840   -0.0964 H   0  0  0  0  0  0  0  0  0  0  0  0
  1  4  1  0  0  0  0
  2  7  1  0  0  0  0
  3  2  1  0  0  0  0
  3  1  1  0  0  0  0
  4  7  1  0  0  0  0
  4  5  1  0  0  0  0
  6  4  1  0  0  0  0
  7  9  1  0  0  0  0
  8  7  1  0  0  0  0
 10  1  1  0  0  0  0
 10 15  1  0  0  0  0
 11 14  1  0  0  0  0
 11 10  1  0  0  0  0
 12 11  1  0  0  0  0
 13 11  1  0  0  0  0
 15 16  1  0  0  0  0
 15 18  1  0  0  0  0
 17 15  1  0  0  0  0
 19 10  1  0  0  0  0
 19 20  1  0  0  0  0
 21 19  1  0  0  0  0
 22 19  1  0  0  0  0
 23  2  1  0  0  0  0
 23 28  1  0  0  0  0
 24 23  1  0  0  0  0
 24 27  1  0  0  0  0
 25 24  1  0  0  0  0
 26 24  1  0  0  0  0
 28 31  1  0  0  0  0
 28 29  1  0  0  0  0
 30 28  1  0  0  0  0
 32 23  1  0  0  0  0
 33 32  1  0  0  0  0
 34 32  1  0  0  0  0
 35 32  1  0  0  0  0
 36  3  1  6  0  0  0
 36 42  1  0  0  0  0
 37 39  2  0  0  0  0
 37 36  1  0  0  0  0
 38 37  1  0  0  0  0
 39 41  1  0  0  0  0
 40 39  1  0  0  0  0
 41 44  1  6  0  0  0
 41 42  1  0  0  0  0
 42 43  1  0  0  0  0
 44 46  1  0  0  0  0
 45 44  1  0  0  0  0
 47 44  1  0  0  0  0
M  END
