36
 OpenBabel05122313113D

 48 52  0  0  1  0  0  0  0  0999 V2000
   -1.7793   -0.6831   -1.4501 N   0  0  0  0  0  0  0  0  0  0  0  0
   -1.7805   -0.7815   -2.8045 C   0  0  0  0  0  0  0  0  0  0  0  0
   -0.7778   -0.7635   -3.2624 H   0  0  0  0  0  0  0  0  0  0  0  0
   -2.9346   -0.9432   -3.5705 C   0  0  0  0  0  0  0  0  0  0  0  0
   -2.8466   -1.0181   -4.6636 H   0  0  0  0  0  0  0  0  0  0  0  0
   -4.1682   -1.0345   -2.9158 C   0  0  0  0  0  0  0  0  0  0  0  0
   -5.1032   -1.1989   -3.4719 H   0  0  0  0  0  0  0  0  0  0  0  0
   -4.1791   -0.9299   -1.5239 C   0  0  0  0  0  0  0  0  0  0  0  0
   -5.1231   -1.0293   -0.9723 H   0  0  0  0  0  0  0  0  0  0  0  0
   -2.9868   -0.7257   -0.7906 C   0  0  0  0  0  0  0  0  0  0  0  0
   -3.1121   -0.5512    0.6835 C   0  0  0  0  0  0  0  0  0  0  0  0
   -4.2349    0.1586    1.1689 C   0  0  0  0  0  0  0  0  0  0  0  0
   -4.9451    0.5914    0.4494 H   0  0  0  0  0  0  0  0  0  0  0  0
   -4.4398    0.3839    2.5357 C   0  0  0  0  0  0  0  0  0  0  0  0
   -5.3184    0.9603    2.8647 H   0  0  0  0  0  0  0  0  0  0  0  0
   -3.5265   -0.1038    3.4891 C   0  0  0  0  0  0  0  0  0  0  0  0
   -2.4031   -0.8036    3.0139 C   0  0  0  0  0  0  0  0  0  0  0  0
   -1.6601   -1.1861    3.7307 H   0  0  0  0  0  0  0  0  0  0  0  0
   -2.1711   -1.0313    1.6441 C   0  0  0  0  0  0  0  0  0  0  0  0
   -3.7169    0.1273    4.9653 C   0  0  0  0  0  0  0  0  0  0  0  0
   -4.6324    0.7130    5.1755 H   0  0  0  0  0  0  0  0  0  0  0  0
   -2.8515    0.6732    5.3963 H   0  0  0  0  0  0  0  0  0  0  0  0
   -3.7927   -0.8337    5.5153 H   0  0  0  0  0  0  0  0  0  0  0  0
   -1.6642   -3.7231   -0.2249 C   0  0  0  0  0  0  0  0  0  0  0  0
   -2.7407   -3.5773   -0.0536 H   0  0  0  0  0  0  0  0  0  0  0  0
   -1.1957   -4.7567   -1.0296 C   0  0  0  0  0  0  0  0  0  0  0  0
   -1.9113   -5.4366   -1.5161 H   0  0  0  0  0  0  0  0  0  0  0  0
    0.1974   -4.9549   -1.2240 C   0  0  0  0  0  0  0  0  0  0  0  0
    0.5384   -5.7889   -1.8556 H   0  0  0  0  0  0  0  0  0  0  0  0
    1.1383   -4.1199   -0.6299 C   0  0  0  0  0  0  0  0  0  0  0  0
    2.2122   -4.2942   -0.7777 H   0  0  0  0  0  0  0  0  0  0  0  0
    0.6976   -3.0473    0.1898 C   0  0  0  0  0  0  0  0  0  0  0  0
    1.4236   -1.9899    0.9104 C   0  0  0  0  0  0  0  0  0  0  0  0
    0.4141   -1.2121    1.6098 C   0  0  0  0  0  0  0  0  0  0  0  0
    0.6140   -0.3920    2.3111 H   0  0  0  0  0  0  0  0  0  0  0  0
   -0.9110   -1.6684    1.2334 C   0  0  1  0  0  3  0  0  0  0  0  0
   -0.7257   -2.8615    0.4001 C   0  0  0  0  0  0  0  0  0  0  0  0
    2.8799   -1.8644    1.0766 C   0  0  0  0  0  0  0  0  0  0  0  0
    3.4244   -1.3827    2.2905 C   0  0  0  0  0  0  0  0  0  0  0  0
    2.7503   -1.1467    3.1275 H   0  0  0  0  0  0  0  0  0  0  0  0
    4.8068   -1.2088    2.4417 C   0  0  0  0  0  0  0  0  0  0  0  0
    5.2063   -0.8294    3.3949 H   0  0  0  0  0  0  0  0  0  0  0  0
    5.6809   -1.5249    1.3892 C   0  0  0  0  0  0  0  0  0  0  0  0
    6.7668   -1.3927    1.5099 H   0  0  0  0  0  0  0  0  0  0  0  0
    5.1537   -2.0048    0.1780 C   0  0  0  0  0  0  0  0  0  0  0  0
    5.8262   -2.2357   -0.6626 H   0  0  0  0  0  0  0  0  0  0  0  0
    3.7717   -2.1681    0.0175 C   0  0  0  0  0  0  0  0  0  0  0  0
    3.3635   -2.4538   -0.9623 H   0  0  0  0  0  0  0  0  0  0  0  0
  1 10  1  0  0  0  0
  2  1  2  0  0  0  0
  3  2  1  0  0  0  0
  4  6  2  0  0  0  0
  4  2  1  0  0  0  0
  5  4  1  0  0  0  0
  6  8  1  0  0  0  0
  7  6  1  0  0  0  0
  8  9  1  0  0  0  0
  8 10  2  0  0  0  0
 10 11  1  0  0  0  0
 11 12  2  0  0  0  0
 11 19  1  0  0  0  0
 12 14  1  0  0  0  0
 13 12  1  0  0  0  0
 14 15  1  0  0  0  0
 14 16  2  0  0  0  0
 16 20  1  0  0  0  0
 17 16  1  0  0  0  0
 17 18  1  0  0  0  0
 19 17  2  0  0  0  0
 20 21  1  0  0  0  0
 20 22  1  0  0  0  0
 20 23  1  0  0  0  0
 24 25  1  0  0  0  0
 24 37  1  0  0  0  0
 26 24  2  0  0  0  0
 27 26  1  0  0  0  0
 28 26  1  0  0  0  0
 28 30  2  0  0  0  0
 29 28  1  0  0  0  0
 30 32  1  0  0  0  0
 31 30  1  0  0  0  0
 32 37  2  0  0  0  0
 32 33  1  0  0  0  0
 33 38  1  0  0  0  0
 33 34  2  0  0  0  0
 34 35  1  0  0  0  0
 36 34  1  0  0  0  0
 36 19  1  1  0  0  0
 37 36  1  0  0  0  0
 38 39  1  0  0  0  0
 39 41  2  0  0  0  0
 39 40  1  0  0  0  0
 41 42  1  0  0  0  0
 43 44  1  0  0  0  0
 43 41  1  0  0  0  0
 45 43  2  0  0  0  0
 46 45  1  0  0  0  0
 47 45  1  0  0  0  0
 47 38  2  0  0  0  0
 48 47  1  0  0  0  0
M  END
