1
 OpenBabel05122313113D

 63 64  0  0  1  0  0  0  0  0999 V2000
   -0.0700    0.3811    0.1044 C   0  0  0  0  0  2  0  0  0  0  0  0
    0.5680   -0.7872    0.1732 O   0  0  0  0  0  0  0  0  0  0  0  0
   -1.5012    0.1022    0.2306 C   0  0  0  0  0  0  0  0  0  0  0  0
   -2.3406    1.0242    0.8232 C   0  0  0  0  0  0  0  0  0  0  0  0
   -3.6864    0.7228    1.2250 C   0  0  0  0  0  0  0  0  0  0  0  0
   -4.1024   -0.5862    1.2224 C   0  0  0  0  0  0  0  0  0  0  0  0
   -3.1436   -1.7022    0.8887 C   0  0  1  0  0  0  0  0  0  0  0  0
   -2.0853   -1.2623   -0.1452 C   0  0  1  0  0  0  0  0  0  0  0  0
   -2.5720   -1.3223   -1.6469 C   0  0  0  0  0  0  0  0  0  0  0  0
   -1.4923   -0.7333   -2.5726 C   0  0  0  0  0  0  0  0  0  0  0  0
   -3.8795   -0.5438   -1.8844 C   0  0  0  0  0  0  0  0  0  0  0  0
   -2.7774   -2.8012   -2.0301 C   0  0  0  0  0  0  0  0  0  0  0  0
   -2.4913   -2.2048    2.1926 C   0  0  0  0  0  0  0  0  0  0  0  0
   -5.3176   -1.0312    1.5860 O   0  0  0  0  0  0  0  0  0  0  0  0
   -6.2960   -0.0783    1.9893 C   0  0  0  0  0  0  0  0  0  0  0  0
    1.9954   -0.9593    0.3548 C   0  0  2  0  0  0  0  0  0  0  0  0
    2.3440   -2.3919   -0.0734 C   0  0  2  0  0  0  0  0  0  0  0  0
    3.8211   -2.6670    0.2662 C   0  0  0  0  0  0  0  0  0  0  0  0
    4.1419   -2.4240    1.7437 C   0  0  0  0  0  0  0  0  0  0  0  0
    3.7798   -0.9941    2.1718 C   0  0  1  0  0  0  0  0  0  0  0  0
    2.3088   -0.7184    1.8327 C   0  0  0  0  0  0  0  0  0  0  0  0
    1.9673   -2.7034   -1.5454 C   0  0  0  0  0  0  0  0  0  0  0  0
    1.8002   -4.2113   -1.7708 C   0  0  0  0  0  0  0  0  0  0  0  0
    2.9278   -2.0944   -2.5748 C   0  0  0  0  0  0  0  0  0  0  0  0
    4.0681   -0.7325    3.6510 C   0  0  0  0  0  0  0  0  0  0  0  0
   -1.9558    2.0231    1.0661 H   0  0  0  0  0  0  0  0  0  0  0  0
   -4.3294    1.5392    1.5784 H   0  0  0  0  0  0  0  0  0  0  0  0
   -3.7484   -2.5305    0.4670 H   0  0  0  0  0  0  0  0  0  0  0  0
   -1.2610   -1.9982   -0.0784 H   0  0  0  0  0  0  0  0  0  0  0  0
   -0.5097   -1.2223   -2.4235 H   0  0  0  0  0  0  0  0  0  0  0  0
   -1.3586    0.3525   -2.4068 H   0  0  0  0  0  0  0  0  0  0  0  0
   -1.7792   -0.8758   -3.6340 H   0  0  0  0  0  0  0  0  0  0  0  0
   -4.1538   -0.5918   -2.9586 H   0  0  0  0  0  0  0  0  0  0  0  0
   -4.7297   -0.9628   -1.3089 H   0  0  0  0  0  0  0  0  0  0  0  0
   -3.7689    0.5243   -1.6136 H   0  0  0  0  0  0  0  0  0  0  0  0
   -3.5541   -3.2952   -1.4114 H   0  0  0  0  0  0  0  0  0  0  0  0
   -3.1005   -2.8856   -3.0877 H   0  0  0  0  0  0  0  0  0  0  0  0
   -1.8349   -3.3769   -1.9172 H   0  0  0  0  0  0  0  0  0  0  0  0
   -1.8381   -1.4211    2.6272 H   0  0  0  0  0  0  0  0  0  0  0  0
   -1.8657   -3.0968    1.9874 H   0  0  0  0  0  0  0  0  0  0  0  0
   -3.2575   -2.4811    2.9433 H   0  0  0  0  0  0  0  0  0  0  0  0
   -5.9667    0.4744    2.8955 H   0  0  0  0  0  0  0  0  0  0  0  0
   -7.2135   -0.6495    2.2176 H   0  0  0  0  0  0  0  0  0  0  0  0
   -6.5016    0.6498    1.1756 H   0  0  0  0  0  0  0  0  0  0  0  0
    2.5199   -0.2238   -0.2877 H   0  0  0  0  0  0  0  0  0  0  0  0
    1.7212   -3.0561    0.5700 H   0  0  0  0  0  0  0  0  0  0  0  0
    4.0771   -3.7080   -0.0201 H   0  0  0  0  0  0  0  0  0  0  0  0
    4.4671   -2.0079   -0.3532 H   0  0  0  0  0  0  0  0  0  0  0  0
    3.5727   -3.1438    2.3754 H   0  0  0  0  0  0  0  0  0  0  0  0
    5.2178   -2.6182    1.9391 H   0  0  0  0  0  0  0  0  0  0  0  0
    4.3977   -0.2903    1.5691 H   0  0  0  0  0  0  0  0  0  0  0  0
    1.6564   -1.3942    2.4302 H   0  0  0  0  0  0  0  0  0  0  0  0
    2.0259    0.3184    2.1040 H   0  0  0  0  0  0  0  0  0  0  0  0
    0.9695   -2.2415   -1.7062 H   0  0  0  0  0  0  0  0  0  0  0  0
    1.0424   -4.6431   -1.0847 H   0  0  0  0  0  0  0  0  0  0  0  0
    2.7526   -4.7583   -1.6068 H   0  0  0  0  0  0  0  0  0  0  0  0
    1.4759   -4.4239   -2.8098 H   0  0  0  0  0  0  0  0  0  0  0  0
    2.5148   -2.1977   -3.5983 H   0  0  0  0  0  0  0  0  0  0  0  0
    3.0985   -1.0129   -2.4070 H   0  0  0  0  0  0  0  0  0  0  0  0
    3.9138   -2.6028   -2.5636 H   0  0  0  0  0  0  0  0  0  0  0  0
    3.4594   -1.3988    4.2986 H   0  0  0  0  0  0  0  0  0  0  0  0
    3.8317    0.3149    3.9280 H   0  0  0  0  0  0  0  0  0  0  0  0
    5.1354   -0.9144    3.8908 H   0  0  0  0  0  0  0  0  0  0  0  0
  1  2  1  0  0  0  0
  1  3  1  0  0  0  0
  2 16  1  0  0  0  0
  3  4  2  0  0  0  0
  4 26  1  0  0  0  0
  4  5  1  0  0  0  0
  5 27  1  0  0  0  0
  6  5  2  0  0  0  0
  6 14  1  0  0  0  0
  7 28  1  6  0  0  0
  7  6  1  0  0  0  0
  7 13  1  0  0  0  0
  8 29  1  1  0  0  0
  8  3  1  0  0  0  0
  8  7  1  0  0  0  0
  9  8  1  0  0  0  0
 10 30  1  0  0  0  0
 10 31  1  0  0  0  0
 10  9  1  0  0  0  0
 11  9  1  0  0  0  0
 11 35  1  0  0  0  0
 11 34  1  0  0  0  0
 12 38  1  0  0  0  0
 12  9  1  0  0  0  0
 12 36  1  0  0  0  0
 13 39  1  0  0  0  0
 13 41  1  0  0  0  0
 14 15  1  0  0  0  0
 15 43  1  0  0  0  0
 15 42  1  0  0  0  0
 16 45  1  6  0  0  0
 16 21  1  0  0  0  0
 17 18  1  0  0  0  0
 17 16  1  0  0  0  0
 17 46  1  1  0  0  0
 18 19  1  0  0  0  0
 19 50  1  0  0  0  0
 19 20  1  0  0  0  0
 19 49  1  0  0  0  0
 20 51  1  6  0  0  0
 20 25  1  0  0  0  0
 21 53  1  0  0  0  0
 21 20  1  0  0  0  0
 21 52  1  0  0  0  0
 22 17  1  0  0  0  0
 23 56  1  0  0  0  0
 23 22  1  0  0  0  0
 23 55  1  0  0  0  0
 24 60  1  0  0  0  0
 24 59  1  0  0  0  0
 24 22  1  0  0  0  0
 25 63  1  0  0  0  0
 25 62  1  0  0  0  0
 25 61  1  0  0  0  0
 32 10  1  0  0  0  0
 33 11  1  0  0  0  0
 37 12  1  0  0  0  0
 40 13  1  0  0  0  0
 44 15  1  0  0  0  0
 47 18  1  0  0  0  0
 48 18  1  0  0  0  0
 54 22  1  0  0  0  0
 57 23  1  0  0  0  0
 58 24  1  0  0  0  0
M  END
