9
 OpenBabel05122313113D

 51 52  0  0  1  0  0  0  0  0999 V2000
    0.1305   -2.4972    3.1380 C   0  0  0  0  0  0  0  0  0  0  0  0
    0.1343   -3.5998    3.2442 H   0  0  0  0  0  0  0  0  0  0  0  0
   -0.3928   -2.0689    4.0158 H   0  0  0  0  0  0  0  0  0  0  0  0
    1.1772   -2.1345    3.1489 H   0  0  0  0  0  0  0  0  0  0  0  0
   -0.5664   -2.1135    1.8487 C   0  0  0  0  0  0  0  0  0  0  0  0
   -0.0815   -2.5757    0.9642 H   0  0  0  0  0  0  0  0  0  0  0  0
   -1.6370   -2.3987    1.8382 H   0  0  0  0  0  0  0  0  0  0  0  0
   -0.4663   -0.6811    1.6961 O   0  0  0  0  0  0  0  0  0  0  0  0
   -1.2401    0.0150    0.8735 C   0  0  0  0  0  2  0  0  0  0  0  0
   -0.7714    1.3848    0.7385 C   0  0  0  0  0  3  0  0  0  0  0  0
   -1.5349    2.1012    0.4018 H   0  0  0  0  0  0  0  0  0  0  0  0
    0.5438    1.8227    0.7311 C   0  0  2  0  0  3  0  0  0  0  0  0
    0.8592    3.1609    0.1741 C   0  0  0  0  0  0  0  0  0  0  0  0
    0.0447    3.7867   -0.8024 C   0  0  0  0  0  0  0  0  0  0  0  0
   -0.8203    3.2488   -1.2160 H   0  0  0  0  0  0  0  0  0  0  0  0
    0.3630    5.0571   -1.2955 C   0  0  0  0  0  0  0  0  0  0  0  0
   -0.2763    5.5173   -2.0640 H   0  0  0  0  0  0  0  0  0  0  0  0
    1.5035    5.7339   -0.8303 C   0  0  0  0  0  0  0  0  0  0  0  0
    1.7531    6.7316   -1.2220 H   0  0  0  0  0  0  0  0  0  0  0  0
    2.3298    5.1226    0.1265 C   0  0  0  0  0  0  0  0  0  0  0  0
    3.2261    5.6438    0.4957 H   0  0  0  0  0  0  0  0  0  0  0  0
    2.0161    3.8488    0.6168 C   0  0  0  0  0  0  0  0  0  0  0  0
    2.6617    3.3707    1.3684 H   0  0  0  0  0  0  0  0  0  0  0  0
    1.6849    0.9957    1.1938 C   0  0  1  0  0  3  0  0  0  0  0  0
    1.8553    0.7080    2.6126 C   0  0  0  0  0  0  0  0  0  0  0  0
    2.7641   -0.0501    3.0455 O   0  0  0  0  0  0  0  0  0  0  0  0
    0.9317    1.3629    3.6182 C   0  0  0  0  0  0  0  0  0  0  0  0
   -0.0457    0.8403    3.6189 H   0  0  0  0  0  0  0  0  0  0  0  0
    0.7344    2.4251    3.3750 H   0  0  0  0  0  0  0  0  0  0  0  0
    1.3837    1.2752    4.6228 H   0  0  0  0  0  0  0  0  0  0  0  0
    2.5947    0.4947    0.2325 C   0  0  0  0  0  0  0  0  0  0  0  0
    2.3784    0.7313   -1.2379 C   0  0  0  0  0  0  0  0  0  0  0  0
    2.7819   -0.1044   -1.8402 H   0  0  0  0  0  0  0  0  0  0  0  0
    2.8734    1.6651   -1.5752 H   0  0  0  0  0  0  0  0  0  0  0  0
    1.3009    0.8446   -1.4556 H   0  0  0  0  0  0  0  0  0  0  0  0
    3.6219   -0.2778    0.6556 N   0  0  0  0  0  4  0  0  0  0  0  0
    3.5472   -0.4336    1.7055 H   0  0  0  0  0  0  0  0  0  0  0  0
    4.6678   -0.8844   -0.0562 C   0  0  0  0  0  0  0  0  0  0  0  0
    5.1407   -2.1341    0.4084 C   0  0  0  0  0  0  0  0  0  0  0  0
    4.6528   -2.5984    1.2789 H   0  0  0  0  0  0  0  0  0  0  0  0
    6.2044   -2.7749   -0.2306 C   0  0  0  0  0  0  0  0  0  0  0  0
    6.5511   -3.7483    0.1511 H   0  0  0  0  0  0  0  0  0  0  0  0
    6.8381   -2.2055   -1.3566 C   0  0  0  0  0  0  0  0  0  0  0  0
    7.9636   -2.9219   -2.0577 C   0  0  0  0  0  0  0  0  0  0  0  0
    7.5852   -3.7886   -2.6412 H   0  0  0  0  0  0  0  0  0  0  0  0
    8.7047   -3.3211   -1.3357 H   0  0  0  0  0  0  0  0  0  0  0  0
    8.4963   -2.2550   -2.7629 H   0  0  0  0  0  0  0  0  0  0  0  0
    6.3729   -0.9518   -1.7982 C   0  0  0  0  0  0  0  0  0  0  0  0
    6.8642   -0.4672   -2.6568 H   0  0  0  0  0  0  0  0  0  0  0  0
    5.3140   -0.2902   -1.1620 C   0  0  0  0  0  0  0  0  0  0  0  0
    5.0175    0.7093   -1.5047 H   0  0  0  0  0  0  0  0  0  0  0  0
  1  4  1  0  0  0  0
  1  2  1  0  0  0  0
  1  3  1  0  0  0  0
  5  1  1  0  0  0  0
  6  5  1  0  0  0  0
  7  5  1  0  0  0  0
  8  5  1  0  0  0  0
  9  8  1  0  0  0  0
 10  9  1  0  0  0  0
 11 10  1  0  0  0  0
 12 10  1  6  0  0  0
 12 24  1  0  0  0  0
 13 22  1  0  0  0  0
 13 12  1  0  0  0  0
 14 13  2  0  0  0  0
 15 14  1  0  0  0  0
 16 18  2  0  0  0  0
 16 14  1  0  0  0  0
 17 16  1  0  0  0  0
 18 20  1  0  0  0  0
 19 18  1  0  0  0  0
 20 21  1  0  0  0  0
 20 22  2  0  0  0  0
 22 23  1  0  0  0  0
 24 31  1  6  0  0  0
 24 25  1  0  0  0  0
 25 26  2  0  0  0  0
 25 27  1  0  0  0  0
 27 28  1  0  0  0  0
 27 30  1  0  0  0  0
 29 27  1  0  0  0  0
 31 36  2  0  0  0  0
 32 31  1  0  0  0  0
 33 32  1  0  0  0  0
 34 32  1  0  0  0  0
 35 32  1  0  0  0  0
 36 37  1  0  0  0  0
 38 39  1  0  0  0  0
 38 36  1  0  0  0  0
 39 40  1  0  0  0  0
 41 42  1  0  0  0  0
 41 39  2  0  0  0  0
 43 41  1  0  0  0  0
 44 43  1  0  0  0  0
 44 46  1  0  0  0  0
 45 44  1  0  0  0  0
 47 44  1  0  0  0  0
 48 43  2  0  0  0  0
 48 50  1  0  0  0  0
 49 48  1  0  0  0  0
 50 38  2  0  0  0  0
 51 50  1  0  0  0  0
M  END
