2
 OpenBabel05122313113D

 17 17  0  0  0  0  0  0  0  0999 V2000
   -0.9302   -1.5394   -1.2103 Cl  0  0  0  0  0  0  0  0  0  0  0  0
   -0.7953    1.1565   -0.2731 C   0  0  0  0  0  2  0  0  0  0  0  0
   -0.8476    2.4703   -0.2318 O   0  0  0  0  0  0  0  0  0  0  0  0
    0.2953    3.3062   -0.4701 C   0  0  0  0  0  0  0  0  0  0  0  0
   -2.1600    0.5975   -0.1573 C   0  0  0  0  0  0  0  0  0  0  0  0
   -2.3731   -0.7275   -0.5827 C   0  0  0  0  0  0  0  0  0  0  0  0
   -3.6125   -1.3616   -0.5547 C   0  0  0  0  0  0  0  0  0  0  0  0
   -4.7013   -0.6305   -0.0472 C   0  0  0  0  0  0  0  0  0  0  0  0
   -4.5356    0.6962    0.3925 C   0  0  0  0  0  0  0  0  0  0  0  0
   -3.2821    1.3136    0.3253 C   0  0  0  0  0  0  0  0  0  0  0  0
    0.2703    4.1162    0.2821 H   0  0  0  0  0  0  0  0  0  0  0  0
    0.1865    3.7417   -1.4824 H   0  0  0  0  0  0  0  0  0  0  0  0
    1.2262    2.7203   -0.4029 H   0  0  0  0  0  0  0  0  0  0  0  0
   -3.7328   -2.3920   -0.9168 H   0  0  0  0  0  0  0  0  0  0  0  0
   -5.6918   -1.1071   -0.0010 H   0  0  0  0  0  0  0  0  0  0  0  0
   -5.3988    1.2530    0.7849 H   0  0  0  0  0  0  0  0  0  0  0  0
   -3.1444    2.3544    0.6505 H   0  0  0  0  0  0  0  0  0  0  0  0
  1  6  1  0  0  0  0
  2  3  1  0  0  0  0
  2  5  1  0  0  0  0
  4 13  1  0  0  0  0
  4  3  1  0  0  0  0
  4 11  1  0  0  0  0
  5 10  1  0  0  0  0
  6  7  1  0  0  0  0
  6  5  2  0  0  0  0
  7  8  2  0  0  0  0
  8 15  1  0  0  0  0
  8  9  1  0  0  0  0
  9 16  1  0  0  0  0
 10  9  2  0  0  0  0
 10 17  1  0  0  0  0
 12  4  1  0  0  0  0
 14  7  1  0  0  0  0
M  END
