6
 OpenBabel05122313113D

 27 27  0  0  1  0  0  0  0  0999 V2000
    1.2303   -0.0534   -1.4630 C   0  0  0  0  0  0  0  0  0  0  0  0
    1.2794    1.0900   -0.6102 C   0  0  0  0  0  0  0  0  0  0  0  0
    0.0439    1.7054   -0.1672 C   0  0  2  0  0  3  0  0  0  0  0  0
   -1.2266    1.1739   -0.5626 C   0  0  0  0  0  0  0  0  0  0  0  0
   -1.2670    0.0289   -1.4447 C   0  0  0  0  0  0  0  0  0  0  0  0
   -0.0483   -0.5471   -1.8768 C   0  0  0  0  0  3  0  0  0  0  0  0
    2.4744   -0.7464   -1.9594 C   0  0  0  0  0  0  0  0  0  0  0  0
    2.5935    1.6850   -0.1726 C   0  0  0  0  0  0  0  0  0  0  0  0
    0.1407    2.9376    0.6993 C   0  0  0  0  0  0  0  0  0  0  0  0
   -2.5158    1.7988   -0.0888 C   0  0  0  0  0  0  0  0  0  0  0  0
   -2.5715   -0.5615   -1.9180 C   0  0  0  0  0  0  0  0  0  0  0  0
   -0.0847   -1.4443   -2.5111 H   0  0  0  0  0  0  0  0  0  0  0  0
    3.1975   -0.9358   -1.1440 H   0  0  0  0  0  0  0  0  0  0  0  0
    2.9865   -0.1369   -2.7335 H   0  0  0  0  0  0  0  0  0  0  0  0
    2.2210   -1.7247   -2.4089 H   0  0  0  0  0  0  0  0  0  0  0  0
    2.6303    1.8399    0.9227 H   0  0  0  0  0  0  0  0  0  0  0  0
    2.7498    2.6767   -0.6480 H   0  0  0  0  0  0  0  0  0  0  0  0
    3.4490    1.0451   -0.4483 H   0  0  0  0  0  0  0  0  0  0  0  0
    0.6583    3.7505    0.1488 H   0  0  0  0  0  0  0  0  0  0  0  0
    0.7241    2.7474    1.6213 H   0  0  0  0  0  0  0  0  0  0  0  0
   -0.8481    3.3194    1.0024 H   0  0  0  0  0  0  0  0  0  0  0  0
   -2.7699    2.6954   -0.6943 H   0  0  0  0  0  0  0  0  0  0  0  0
   -2.4564    2.1109    0.9695 H   0  0  0  0  0  0  0  0  0  0  0  0
   -3.3609    1.0935   -0.1695 H   0  0  0  0  0  0  0  0  0  0  0  0
   -3.1180    0.1552   -2.5659 H   0  0  0  0  0  0  0  0  0  0  0  0
   -3.2400   -0.8273   -1.0760 H   0  0  0  0  0  0  0  0  0  0  0  0
   -2.3912   -1.4826   -2.5031 H   0  0  0  0  0  0  0  0  0  0  0  0
  1  2  2  0  0  0  0
  2  8  1  0  0  0  0
  2  3  1  0  0  0  0
  3  9  1  6  0  0  0
  4  3  1  0  0  0  0
  4 10  1  0  0  0  0
  5  4  2  0  0  0  0
  6  1  1  0  0  0  0
  6  5  1  0  0  0  0
  7  1  1  0  0  0  0
  7 13  1  0  0  0  0
  8 16  1  0  0  0  0
  9 21  1  0  0  0  0
  9 20  1  0  0  0  0
 10 23  1  0  0  0  0
 11  5  1  0  0  0  0
 11 26  1  0  0  0  0
 12  6  1  0  0  0  0
 14  7  1  0  0  0  0
 15  7  1  0  0  0  0
 17  8  1  0  0  0  0
 18  8  1  0  0  0  0
 19  9  1  0  0  0  0
 22 10  1  0  0  0  0
 24 10  1  0  0  0  0
 25 11  1  0  0  0  0
 27 11  1  0  0  0  0
M  END
