1
 OpenBabel05122313113D

 37 39  0  0  1  0  0  0  0  0999 V2000
    1.9967   -0.2271   -0.1241 C   0  0  0  0  0  3  0  0  0  0  0  0
    2.0358    1.2133   -0.1473 C   0  0  0  0  0  0  0  0  0  0  0  0
    1.0036    2.1907   -0.1495 C   0  0  2  0  0  3  0  0  0  0  0  0
    1.3849    3.5358   -0.1190 C   0  0  0  0  0  0  0  0  0  0  0  0
    0.6078    4.3130   -0.1096 H   0  0  0  0  0  0  0  0  0  0  0  0
    2.7511    3.9141   -0.1200 C   0  0  0  0  0  0  0  0  0  0  0  0
    3.0050    4.9846   -0.1094 H   0  0  0  0  0  0  0  0  0  0  0  0
    3.7832    2.9744   -0.1397 C   0  0  0  0  0  0  0  0  0  0  0  0
    4.8363    3.2889   -0.1450 H   0  0  0  0  0  0  0  0  0  0  0  0
    3.4029    1.6171   -0.1363 C   0  0  0  0  0  0  0  0  0  0  0  0
    5.5816    0.3498   -0.3816 C   0  0  0  0  0  0  0  0  0  0  0  0
    6.0453    1.3403   -0.2247 H   0  0  0  0  0  0  0  0  0  0  0  0
    5.7730    0.0340   -1.4300 H   0  0  0  0  0  0  0  0  0  0  0  0
    6.0672   -0.3631    0.3129 H   0  0  0  0  0  0  0  0  0  0  0  0
    3.7940   -1.9706    0.0373 C   0  0  0  0  0  0  0  0  0  0  0  0
    4.6951   -2.1076   -0.5940 H   0  0  0  0  0  0  0  0  0  0  0  0
    2.9941   -2.6129   -0.3788 H   0  0  0  0  0  0  0  0  0  0  0  0
    4.0539   -2.3148    1.5015 C   0  0  0  0  0  0  0  0  0  0  0  0
    4.8247   -1.6597    1.9553 H   0  0  0  0  0  0  0  0  0  0  0  0
    4.3996   -3.3637    1.5852 H   0  0  0  0  0  0  0  0  0  0  0  0
    3.1166   -2.2099    2.0827 H   0  0  0  0  0  0  0  0  0  0  0  0
   -0.4199    1.7668   -0.1712 C   0  0  0  0  0  0  0  0  0  0  0  0
   -0.9577    1.0961   -1.2823 C   0  0  0  0  0  0  0  0  0  0  0  0
   -2.2636    0.5772   -1.2730 C   0  0  0  0  0  0  0  0  0  0  0  0
   -3.0755    0.7217   -0.1343 C   0  0  0  0  0  0  0  0  0  0  0  0
   -2.5511    1.4220    0.9692 C   0  0  0  0  0  0  0  0  0  0  0  0
   -1.2507    1.9432    0.9486 C   0  0  0  0  0  0  0  0  0  0  0  0
   -4.4785    0.1517   -0.0195 C   0  0  0  0  0  0  0  0  0  0  0  0
   -0.2031    0.9065   -2.3726 F   0  0  0  0  0  0  0  0  0  0  0  0
   -2.6729   -0.0727   -2.3603 F   0  0  0  0  0  0  0  0  0  0  0  0
   -4.5796   -0.6620    1.0497 F   0  0  0  0  0  0  0  0  0  0  0  0
   -5.3785    1.1558    0.1480 F   0  0  0  0  0  0  0  0  0  0  0  0
   -4.8499   -0.5441   -1.1067 F   0  0  0  0  0  0  0  0  0  0  0  0
   -3.2895    1.5933    2.0702 F   0  0  0  0  0  0  0  0  0  0  0  0
   -0.7839    2.5727    2.0357 F   0  0  0  0  0  0  0  0  0  0  0  0
    3.2974   -0.6070   -0.1409 N   0  0  0  0  0  0  0  0  0  0  0  0
    4.1707    0.4772   -0.0992 N   0  0  0  0  0  0  0  0  0  0  0  0
  2 10  1  0  0  0  0
  2  1  2  0  0  0  0
  3 22  1  1  0  0  0
  3  2  1  0  0  0  0
  3  4  1  0  0  0  0
  4  5  1  0  0  0  0
  6  4  2  0  0  0  0
  6  7  1  0  0  0  0
  8 10  2  0  0  0  0
  8  6  1  0  0  0  0
  9  8  1  0  0  0  0
 10 37  1  0  0  0  0
 11 12  1  0  0  0  0
 11 37  1  0  0  0  0
 11 14  1  0  0  0  0
 13 11  1  0  0  0  0
 15 18  1  0  0  0  0
 16 15  1  0  0  0  0
 17 15  1  0  0  0  0
 18 20  1  0  0  0  0
 18 19  1  0  0  0  0
 18 21  1  0  0  0  0
 22 27  1  0  0  0  0
 23 24  1  0  0  0  0
 23 22  2  0  0  0  0
 24 25  2  0  0  0  0
 25 28  1  0  0  0  0
 25 26  1  0  0  0  0
 26 34  1  0  0  0  0
 27 26  2  0  0  0  0
 27 35  1  0  0  0  0
 28 32  1  0  0  0  0
 28 31  1  0  0  0  0
 29 23  1  0  0  0  0
 30 24  1  0  0  0  0
 33 28  1  0  0  0  0
 36  1  1  0  0  0  0
 36 37  1  0  0  0  0
 36 15  1  0  0  0  0
M  END
