4
 OpenBabel05122313113D

 30 30  0  0  1  0  0  0  0  0999 V2000
   -1.0210   -1.6821    0.0663 C   0  0  0  0  0  3  0  0  0  0  0  0
   -3.4114   -1.4652    0.1874 C   0  0  0  0  0  3  0  0  0  0  0  0
   -2.2704   -0.7573   -1.8284 C   0  0  0  0  0  3  0  0  0  0  0  0
   -2.2627   -1.5999   -0.6684 C   0  0  0  0  0  3  0  0  0  0  0  0
    0.3441   -1.6786   -0.5479 C   0  0  0  0  0  0  0  0  0  0  0  0
    0.5863   -1.4924   -1.7451 O   0  0  0  0  0  0  0  0  0  0  0  0
    1.3481   -1.8994    0.3683 N   0  0  0  0  0  0  0  0  0  0  0  0
    2.7477   -1.6595    0.0138 C   0  0  2  0  0  0  0  0  0  0  0  0
    3.6684   -2.4511    0.9434 C   0  0  0  0  0  0  0  0  0  0  0  0
    3.0453   -0.1617   -0.0145 C   0  0  0  0  0  0  0  0  0  0  0  0
    3.0283    0.6024    1.1698 C   0  0  0  0  0  0  0  0  0  0  0  0
    3.2510    1.9861    1.1321 C   0  0  0  0  0  0  0  0  0  0  0  0
    3.4941    2.6259   -0.0942 C   0  0  0  0  0  0  0  0  0  0  0  0
    3.5080    1.8747   -1.2787 C   0  0  0  0  0  0  0  0  0  0  0  0
    3.2802    0.4908   -1.2381 C   0  0  0  0  0  0  0  0  0  0  0  0
    2.8554   -2.0368   -1.0227 H   0  0  0  0  0  0  0  0  0  0  0  0
    4.7266   -2.3010    0.6555 H   0  0  0  0  0  0  0  0  0  0  0  0
    3.5642   -2.1233    1.9992 H   0  0  0  0  0  0  0  0  0  0  0  0
    3.4365   -3.5335    0.8939 H   0  0  0  0  0  0  0  0  0  0  0  0
    2.8346    0.1141    2.1389 H   0  0  0  0  0  0  0  0  0  0  0  0
    3.2338    2.5697    2.0654 H   0  0  0  0  0  0  0  0  0  0  0  0
    3.6650    3.7127   -0.1257 H   0  0  0  0  0  0  0  0  0  0  0  0
    3.6843    2.3716   -2.2448 H   0  0  0  0  0  0  0  0  0  0  0  0
    3.2594   -0.0958   -2.1692 H   0  0  0  0  0  0  0  0  0  0  0  0
   -3.4253   -1.9818    1.1597 H   0  0  0  0  0  0  0  0  0  0  0  0
   -4.3962   -1.2743   -0.2659 H   0  0  0  0  0  0  0  0  0  0  0  0
   -1.3587   -0.6999   -2.4388 H   0  0  0  0  0  0  0  0  0  0  0  0
   -3.2350   -0.5478   -2.3165 H   0  0  0  0  0  0  0  0  0  0  0  0
   -1.0834   -2.1744    1.0521 H   0  0  0  0  0  0  0  0  0  0  0  0
    1.1055   -1.8897    1.3611 H   0  0  0  0  0  0  0  0  0  0  0  0
  1 29  1  0  0  0  0
  2 25  1  0  0  0  0
  3  4  1  0  0  0  0
  4  1  1  0  0  0  0
  4  2  1  0  0  0  0
  5  1  1  0  0  0  0
  5  7  1  0  0  0  0
  6  5  2  0  0  0  0
  7 30  1  0  0  0  0
  8 16  1  6  0  0  0
  8  7  1  0  0  0  0
  8  9  1  0  0  0  0
  9 18  1  0  0  0  0
 10  8  1  0  0  0  0
 10 11  1  0  0  0  0
 11 20  1  0  0  0  0
 12 11  2  0  0  0  0
 12 21  1  0  0  0  0
 13 12  1  0  0  0  0
 14 15  1  0  0  0  0
 14 13  2  0  0  0  0
 15 10  2  0  0  0  0
 17  9  1  0  0  0  0
 19  9  1  0  0  0  0
 22 13  1  0  0  0  0
 23 14  1  0  0  0  0
 24 15  1  0  0  0  0
 26  2  1  0  0  0  0
 27  3  1  0  0  0  0
 28  3  1  0  0  0  0
M  END
