37
 OpenBabel05122313113D

 79 86  0  0  1  0  0  0  0  0999 V2000
   -0.4462   -0.3115    2.9151 Si  0  0  0  0  0  0  0  0  0  0  0  0
    0.2612    1.1704    1.9342 C   0  0  0  0  0  0  0  0  0  0  0  0
   -0.7012    2.0599    1.3414 C   0  0  0  0  0  3  0  0  0  0  0  0
   -1.7525    2.1413    1.6435 H   0  0  0  0  0  0  0  0  0  0  0  0
   -0.1624    2.7431    0.2121 C   0  0  0  0  0  0  0  0  0  0  0  0
    1.2188    2.3391    0.1155 C   0  0  0  0  0  0  0  0  0  0  0  0
    2.2516    2.7641   -0.7647 C   0  0  0  0  0  0  0  0  0  0  0  0
    2.0404    3.5059   -1.5463 H   0  0  0  0  0  0  0  0  0  0  0  0
    3.5109    2.2265   -0.6072 C   0  0  0  0  0  0  0  0  0  0  0  0
    4.3207    2.5294   -1.2897 H   0  0  0  0  0  0  0  0  0  0  0  0
    3.8272    1.3132    0.4489 C   0  0  0  0  0  0  0  0  0  0  0  0
    5.2681    0.8515    0.5621 C   0  0  0  0  0  0  0  0  0  0  0  0
    5.9039    1.7358    0.7964 H   0  0  0  0  0  0  0  0  0  0  0  0
    5.6095    0.5060   -0.4382 H   0  0  0  0  0  0  0  0  0  0  0  0
    5.4905   -0.2346    1.6156 C   0  0  0  0  0  0  0  0  0  0  0  0
    6.5746   -0.3632    1.8099 H   0  0  0  0  0  0  0  0  0  0  0  0
    5.1188   -1.2119    1.2344 H   0  0  0  0  0  0  0  0  0  0  0  0
    4.7327    0.1280    2.8930 C   0  0  0  0  0  0  0  0  0  0  0  0
    5.0634    1.1296    3.2464 H   0  0  0  0  0  0  0  0  0  0  0  0
    4.9542   -0.5865    3.7118 H   0  0  0  0  0  0  0  0  0  0  0  0
    3.2273    0.1468    2.6156 C   0  0  0  0  0  0  0  0  0  0  0  0
    2.8789   -0.9072    2.5451 H   0  0  0  0  0  0  0  0  0  0  0  0
    2.6700    0.5737    3.4749 H   0  0  0  0  0  0  0  0  0  0  0  0
    2.8492    0.9172    1.3701 C   0  0  0  0  0  0  0  0  0  0  0  0
    1.4953    1.3789    1.1743 C   0  0  0  0  0  0  0  0  0  0  0  0
   -0.8656    3.7382   -0.6172 C   0  0  0  0  0  0  0  0  0  0  0  0
   -0.6815    3.8001   -2.0179 C   0  0  0  0  0  0  0  0  0  0  0  0
   -0.0367    3.0581   -2.5120 H   0  0  0  0  0  0  0  0  0  0  0  0
   -1.3647    4.7536   -2.7833 C   0  0  0  0  0  0  0  0  0  0  0  0
   -1.2183    4.7791   -3.8739 H   0  0  0  0  0  0  0  0  0  0  0  0
   -2.2475    5.6579   -2.1707 C   0  0  0  0  0  0  0  0  0  0  0  0
   -2.7845    6.4043   -2.7755 H   0  0  0  0  0  0  0  0  0  0  0  0
   -2.4468    5.5980   -0.7824 C   0  0  0  0  0  0  0  0  0  0  0  0
   -3.1380    6.3010   -0.2928 H   0  0  0  0  0  0  0  0  0  0  0  0
   -1.7622    4.6476   -0.0130 C   0  0  0  0  0  0  0  0  0  0  0  0
   -1.9062    4.6160    1.0776 H   0  0  0  0  0  0  0  0  0  0  0  0
   -0.5501   -1.4906    1.4250 C   0  0  2  0  0  3  0  0  0  0  0  0
    0.7451   -1.7170    0.8218 C   0  0  0  0  0  0  0  0  0  0  0  0
    1.7072   -1.5324    1.3097 H   0  0  0  0  0  0  0  0  0  0  0  0
    0.6344   -2.2433   -0.4894 C   0  0  0  0  0  0  0  0  0  0  0  0
   -0.7809   -2.3767   -0.7501 C   0  0  0  0  0  0  0  0  0  0  0  0
   -1.4855   -2.7797   -1.9193 C   0  0  0  0  0  0  0  0  0  0  0  0
   -0.9402   -3.0031   -2.8461 H   0  0  0  0  0  0  0  0  0  0  0  0
   -2.8625   -2.8638   -1.8583 C   0  0  0  0  0  0  0  0  0  0  0  0
   -3.4276   -3.1673   -2.7537 H   0  0  0  0  0  0  0  0  0  0  0  0
   -3.5968   -2.5640   -0.6674 C   0  0  0  0  0  0  0  0  0  0  0  0
   -5.1034   -2.7297   -0.6986 C   0  0  0  0  0  0  0  0  0  0  0  0
   -5.3415   -3.8165   -0.6241 H   0  0  0  0  0  0  0  0  0  0  0  0
   -5.4799   -2.4130   -1.6940 H   0  0  0  0  0  0  0  0  0  0  0  0
   -5.8234   -1.9715    0.4182 C   0  0  0  0  0  0  0  0  0  0  0  0
   -5.7895   -0.8808    0.2029 H   0  0  0  0  0  0  0  0  0  0  0  0
   -6.8940   -2.2600    0.4494 H   0  0  0  0  0  0  0  0  0  0  0  0
   -5.1386   -2.2399    1.7593 C   0  0  0  0  0  0  0  0  0  0  0  0
   -5.1465   -3.3335    1.9646 H   0  0  0  0  0  0  0  0  0  0  0  0
   -5.6888   -1.7582    2.5937 H   0  0  0  0  0  0  0  0  0  0  0  0
   -3.6963   -1.7297    1.7248 C   0  0  0  0  0  0  0  0  0  0  0  0
   -3.7031   -0.6175    1.7698 H   0  0  0  0  0  0  0  0  0  0  0  0
   -3.1352   -2.0640    2.6219 H   0  0  0  0  0  0  0  0  0  0  0  0
   -2.9381   -2.1207    0.4837 C   0  0  0  0  0  0  0  0  0  0  0  0
   -1.5121   -1.9816    0.4444 C   0  0  0  0  0  0  0  0  0  0  0  0
    1.7726   -2.6693   -1.3222 C   0  0  0  0  0  0  0  0  0  0  0  0
    1.6854   -3.8068   -2.1547 C   0  0  0  0  0  0  0  0  0  0  0  0
    0.7477   -4.3792   -2.1937 H   0  0  0  0  0  0  0  0  0  0  0  0
    2.7936   -4.2359   -2.9001 C   0  0  0  0  0  0  0  0  0  0  0  0
    2.7064   -5.1281   -3.5388 H   0  0  0  0  0  0  0  0  0  0  0  0
    4.0093   -3.5394   -2.8274 C   0  0  0  0  0  0  0  0  0  0  0  0
    4.8769   -3.8754   -3.4153 H   0  0  0  0  0  0  0  0  0  0  0  0
    4.1093   -2.4081   -1.9997 C   0  0  0  0  0  0  0  0  0  0  0  0
    5.0552   -1.8476   -1.9414 H   0  0  0  0  0  0  0  0  0  0  0  0
    3.0043   -1.9763   -1.2582 C   0  0  0  0  0  0  0  0  0  0  0  0
    3.0826   -1.0690   -0.6409 H   0  0  0  0  0  0  0  0  0  0  0  0
   -2.0228    0.3025    3.7516 C   0  0  0  0  0  0  0  0  0  0  0  0
   -2.5277   -0.5155    4.3019 H   0  0  0  0  0  0  0  0  0  0  0  0
   -2.7584    0.7550    3.0619 H   0  0  0  0  0  0  0  0  0  0  0  0
   -1.7243    1.0750    4.4908 H   0  0  0  0  0  0  0  0  0  0  0  0
    0.5857   -1.1046    4.2841 C   0  0  0  0  0  0  0  0  0  0  0  0
   -0.0743   -1.8129    4.8270 H   0  0  0  0  0  0  0  0  0  0  0  0
    0.9455   -0.3495    5.0124 H   0  0  0  0  0  0  0  0  0  0  0  0
    1.4540   -1.6779    3.9122 H   0  0  0  0  0  0  0  0  0  0  0  0
  1 72  1  0  0  0  0
  1 76  1  0  0  0  0
  2  1  1  0  0  0  0
  3  4  1  0  0  0  0
  3  2  1  0  0  0  0
  5  3  1  0  0  0  0
  6  5  2  0  0  0  0
  6 25  1  0  0  0  0
  7  9  2  0  0  0  0
  7  6  1  0  0  0  0
  8  7  1  0  0  0  0
  9 11  1  0  0  0  0
 10  9  1  0  0  0  0
 11 12  1  0  0  0  0
 11 24  2  0  0  0  0
 12 13  1  0  0  0  0
 12 15  1  0  0  0  0
 14 12  1  0  0  0  0
 15 16  1  0  0  0  0
 15 18  1  0  0  0  0
 17 15  1  0  0  0  0
 18 19  1  0  0  0  0
 18 20  1  0  0  0  0
 21 18  1  0  0  0  0
 21 23  1  0  0  0  0
 22 21  1  0  0  0  0
 24 21  1  0  0  0  0
 25 24  1  0  0  0  0
 25  2  2  0  0  0  0
 26 35  1  0  0  0  0
 26  5  1  0  0  0  0
 27 26  2  0  0  0  0
 28 27  1  0  0  0  0
 29 31  2  0  0  0  0
 29 27  1  0  0  0  0
 30 29  1  0  0  0  0
 31 33  1  0  0  0  0
 32 31  1  0  0  0  0
 33 34  1  0  0  0  0
 33 35  2  0  0  0  0
 35 36  1  0  0  0  0
 37  1  1  6  0  0  0
 38 39  1  0  0  0  0
 38 37  1  0  0  0  0
 40 38  2  0  0  0  0
 41 40  1  0  0  0  0
 41 60  1  0  0  0  0
 42 44  1  0  0  0  0
 42 41  2  0  0  0  0
 43 42  1  0  0  0  0
 44 46  2  0  0  0  0
 45 44  1  0  0  0  0
 46 59  1  0  0  0  0
 47 46  1  0  0  0  0
 47 48  1  0  0  0  0
 47 50  1  0  0  0  0
 49 47  1  0  0  0  0
 50 52  1  0  0  0  0
 50 53  1  0  0  0  0
 51 50  1  0  0  0  0
 53 54  1  0  0  0  0
 53 55  1  0  0  0  0
 56 53  1  0  0  0  0
 56 57  1  0  0  0  0
 56 58  1  0  0  0  0
 59 56  1  0  0  0  0
 60 59  2  0  0  0  0
 60 37  1  0  0  0  0
 61 70  1  0  0  0  0
 61 40  1  0  0  0  0
 62 61  2  0  0  0  0
 63 62  1  0  0  0  0
 64 66  2  0  0  0  0
 64 62  1  0  0  0  0
 65 64  1  0  0  0  0
 66 68  1  0  0  0  0
 67 66  1  0  0  0  0
 68 69  1  0  0  0  0
 68 70  2  0  0  0  0
 70 71  1  0  0  0  0
 72 73  1  0  0  0  0
 72 75  1  0  0  0  0
 74 72  1  0  0  0  0
 76 77  1  0  0  0  0
 76 78  1  0  0  0  0
 79 76  1  0  0  0  0
M  END
