2
 OpenBabel05122313113D

 16 15  0  0  0  0  0  0  0  0999 V2000
    3.6636   -0.0124    0.1027 Si  0  0  0  0  0  0  0  0  0  0  0  0
    1.1025   -0.7896    1.5293 C   0  0  0  0  0  3  0  0  0  0  0  0
    1.8861   -0.4903    0.4845 C   0  0  0  0  0  3  0  0  0  0  0  0
    4.6313   -0.1443    1.7254 C   0  0  0  0  0  0  0  0  0  0  0  0
    3.6417    1.7749   -0.5078 C   0  0  0  0  0  0  0  0  0  0  0  0
    4.3874   -1.1843   -1.1887 C   0  0  0  0  0  0  0  0  0  0  0  0
    1.2245   -0.9712    2.6071 H   0  0  0  0  0  0  0  0  0  0  0  0
    4.6134   -1.1818    2.1175 H   0  0  0  0  0  0  0  0  0  0  0  0
    5.6921    0.1472    1.5792 H   0  0  0  0  0  0  0  0  0  0  0  0
    4.1983    0.5221    2.4993 H   0  0  0  0  0  0  0  0  0  0  0  0
    3.1150    2.4292    0.2163 H   0  0  0  0  0  0  0  0  0  0  0  0
    4.6737    2.1589   -0.6439 H   0  0  0  0  0  0  0  0  0  0  0  0
    3.1092    1.8426   -1.4766 H   0  0  0  0  0  0  0  0  0  0  0  0
    5.4463   -0.9253   -1.3958 H   0  0  0  0  0  0  0  0  0  0  0  0
    4.3520   -2.2348   -0.8355 H   0  0  0  0  0  0  0  0  0  0  0  0
    3.8192   -1.1152   -2.1368 H   0  0  0  0  0  0  0  0  0  0  0  0
  1  3  1  0  0  0  0
  1  4  1  0  0  0  0
  2  7  1  0  0  0  0
  3  2  2  0  0  0  0
  4  8  1  0  0  0  0
  4 10  1  0  0  0  0
  5  1  1  0  0  0  0
  5 11  1  0  0  0  0
  6 15  1  0  0  0  0
  6  1  1  0  0  0  0
  9  4  1  0  0  0  0
 12  5  1  0  0  0  0
 13  5  1  0  0  0  0
 14  6  1  0  0  0  0
 16  6  1  0  0  0  0
M  END
