6
 OpenBabel05122313113D

 26 26  0  0  0  0  0  0  0  0999 V2000
   -1.3077    0.7713   -0.5800 C   0  0  0  0  0  0  0  0  0  0  0  0
   -0.6522    0.4125   -1.7974 C   0  0  0  0  0  0  0  0  0  0  0  0
   -0.9295   -0.4330   -2.4361 H   0  0  0  0  0  0  0  0  0  0  0  0
    0.4592    1.2693   -1.9881 C   0  0  0  0  0  0  0  0  0  0  0  0
    1.1441    1.2471   -2.8410 H   0  0  0  0  0  0  0  0  0  0  0  0
    0.4884    2.1957   -0.8923 C   0  0  0  0  0  3  0  0  0  0  0  0
    1.2055    3.0095   -0.7430 H   0  0  0  0  0  0  0  0  0  0  0  0
   -0.6045    1.8942   -0.0441 C   0  0  0  0  0  0  0  0  0  0  0  0
   -0.8348    2.3917    0.9039 H   0  0  0  0  0  0  0  0  0  0  0  0
   -2.5098    0.1072    0.0185 C   0  0  0  0  0  0  0  0  0  0  0  0
   -2.3550    0.0423    1.1149 H   0  0  0  0  0  0  0  0  0  0  0  0
   -2.5687   -0.9346   -0.3582 H   0  0  0  0  0  0  0  0  0  0  0  0
   -3.8098    0.8599   -0.2990 C   0  0  0  0  0  0  0  0  0  0  0  0
   -3.8938    1.0110   -1.3961 H   0  0  0  0  0  0  0  0  0  0  0  0
   -3.7801    1.8749    0.1542 H   0  0  0  0  0  0  0  0  0  0  0  0
   -5.1101    0.1693    0.2006 C   0  0  0  0  0  0  0  0  0  0  0  0
   -5.0850   -0.0514    1.7297 C   0  0  0  0  0  0  0  0  0  0  0  0
   -6.0401   -0.4905    2.0783 H   0  0  0  0  0  0  0  0  0  0  0  0
   -4.9416    0.9227    2.2400 H   0  0  0  0  0  0  0  0  0  0  0  0
   -4.2655   -0.7290    2.0348 H   0  0  0  0  0  0  0  0  0  0  0  0
   -6.3291    1.0361   -0.1883 C   0  0  0  0  0  0  0  0  0  0  0  0
   -6.3676    1.2045   -1.2824 H   0  0  0  0  0  0  0  0  0  0  0  0
   -6.2564    2.0217    0.3143 H   0  0  0  0  0  0  0  0  0  0  0  0
   -7.2768    0.5549    0.1231 H   0  0  0  0  0  0  0  0  0  0  0  0
   -5.2371   -1.1404   -0.4703 C   0  0  0  0  0  0  0  0  0  0  0  0
   -5.3377   -2.1751   -1.0110 N   0  0  0  0  0  0  0  0  0  0  0  0
  1  8  2  0  0  0  0
  1 10  1  0  0  0  0
  2  1  1  0  0  0  0
  3  2  1  0  0  0  0
  4  2  2  0  0  0  0
  4  6  1  0  0  0  0
  5  4  1  0  0  0  0
  6  7  1  0  0  0  0
  6  8  1  0  0  0  0
  8  9  1  0  0  0  0
 10 11  1  0  0  0  0
 12 10  1  0  0  0  0
 13 10  1  0  0  0  0
 13 15  1  0  0  0  0
 13 16  1  0  0  0  0
 14 13  1  0  0  0  0
 16 17  1  0  0  0  0
 17 20  1  0  0  0  0
 17 18  1  0  0  0  0
 17 19  1  0  0  0  0
 21 24  1  0  0  0  0
 21 16  1  0  0  0  0
 21 23  1  0  0  0  0
 22 21  1  0  0  0  0
 25 16  1  0  0  0  0
 26 25  3  0  0  0  0
M  END
