6
 OpenBabel05122313113D

 44 47  0  0  0  0  0  0  0  0999 V2000
   -4.2854   -0.9919    2.2086 O   0  0  0  0  0  0  0  0  0  0  0  0
   -4.1774    1.7481   -1.4720 O   0  0  0  0  0  0  0  0  0  0  0  0
    2.0876    1.9390    0.0681 N   0  0  0  0  0  0  0  0  0  0  0  0
    4.2289    1.6020    0.0355 N   0  0  0  0  0  0  0  0  0  0  0  0
   -4.2349    0.3984    0.3843 N   0  0  0  0  0  0  0  0  0  0  0  0
    3.0330    0.9462   -0.0815 C   0  0  0  0  0  2  0  0  0  0  0  0
    4.0411    2.9630    0.2420 C   0  0  0  0  0  0  0  0  0  0  0  0
    4.8775    3.6572    0.3667 H   0  0  0  0  0  0  0  0  0  0  0  0
    2.6898    3.1807    0.2579 C   0  0  0  0  0  0  0  0  0  0  0  0
    2.1040    4.0924    0.4050 H   0  0  0  0  0  0  0  0  0  0  0  0
    5.5294    0.9549   -0.0599 C   0  0  0  0  0  0  0  0  0  0  0  0
    5.3597   -0.1220   -0.2449 H   0  0  0  0  0  0  0  0  0  0  0  0
    6.0936    1.0823    0.8849 H   0  0  0  0  0  0  0  0  0  0  0  0
    6.1117    1.3849   -0.8983 H   0  0  0  0  0  0  0  0  0  0  0  0
    0.6742    1.7399   -0.0447 C   0  0  0  0  0  0  0  0  0  0  0  0
   -0.0029    2.3646   -1.0884 C   0  0  0  0  0  0  0  0  0  0  0  0
    0.5651    2.9709   -1.8088 H   0  0  0  0  0  0  0  0  0  0  0  0
   -1.3954    2.1947   -1.2395 C   0  0  0  0  0  0  0  0  0  0  0  0
   -1.9458    2.6710   -2.0636 H   0  0  0  0  0  0  0  0  0  0  0  0
   -2.1032    1.3908   -0.3497 C   0  0  0  0  0  0  0  0  0  0  0  0
   -1.4299    0.7489    0.7271 C   0  0  0  0  0  0  0  0  0  0  0  0
   -0.0143    0.9250    0.9094 C   0  0  0  0  0  0  0  0  0  0  0  0
    0.6157    0.2922    2.0203 C   0  0  0  0  0  0  0  0  0  0  0  0
    1.6935    0.4276    2.1801 H   0  0  0  0  0  0  0  0  0  0  0  0
   -0.1208   -0.5011    2.8915 C   0  0  0  0  0  0  0  0  0  0  0  0
    0.3826   -0.9908    3.7378 H   0  0  0  0  0  0  0  0  0  0  0  0
   -1.5081   -0.6928    2.6961 C   0  0  0  0  0  0  0  0  0  0  0  0
   -2.1041   -1.3250    3.3705 H   0  0  0  0  0  0  0  0  0  0  0  0
   -2.1599   -0.0715    1.6334 C   0  0  0  0  0  0  0  0  0  0  0  0
   -3.6242   -0.2778    1.4603 C   0  0  0  0  0  0  0  0  0  0  0  0
   -3.5698    1.2136   -0.5478 C   0  0  0  0  0  0  0  0  0  0  0  0
   -5.6754    0.1876    0.1883 C   0  0  0  0  0  0  0  0  0  0  0  0
   -6.0677    1.1096   -0.2779 H   0  0  0  0  0  0  0  0  0  0  0  0
   -6.1218    0.0524    1.1916 H   0  0  0  0  0  0  0  0  0  0  0  0
   -5.9697   -1.0348   -0.6886 C   0  0  0  0  0  0  0  0  0  0  0  0
   -5.4942   -1.9217   -0.2207 H   0  0  0  0  0  0  0  0  0  0  0  0
   -5.4872   -0.8870   -1.6791 H   0  0  0  0  0  0  0  0  0  0  0  0
   -7.4696   -1.2974   -0.8763 C   0  0  0  0  0  0  0  0  0  0  0  0
   -7.5881   -2.2599   -1.4180 H   0  0  0  0  0  0  0  0  0  0  0  0
   -7.9395   -1.4559    0.1201 H   0  0  0  0  0  0  0  0  0  0  0  0
   -8.2189   -0.1968   -1.6325 C   0  0  0  0  0  0  0  0  0  0  0  0
   -8.2161    0.7665   -1.0824 H   0  0  0  0  0  0  0  0  0  0  0  0
   -9.2795   -0.4729   -1.7994 H   0  0  0  0  0  0  0  0  0  0  0  0
   -7.7599   -0.0086   -2.6256 H   0  0  0  0  0  0  0  0  0  0  0  0
  2 31  2  0  0  0  0
  3  9  1  0  0  0  0
  4  7  1  0  0  0  0
  5 30  1  0  0  0  0
  6  4  1  0  0  0  0
  6  3  1  0  0  0  0
  7  9  2  0  0  0  0
  7  8  1  0  0  0  0
  9 10  1  0  0  0  0
 11  4  1  0  0  0  0
 11 13  1  0  0  0  0
 12 11  1  0  0  0  0
 14 11  1  0  0  0  0
 15  3  1  0  0  0  0
 15 22  1  0  0  0  0
 16 15  2  0  0  0  0
 17 16  1  0  0  0  0
 18 16  1  0  0  0  0
 18 20  2  0  0  0  0
 19 18  1  0  0  0  0
 20 21  1  0  0  0  0
 21 22  2  0  0  0  0
 21 29  1  0  0  0  0
 22 23  1  0  0  0  0
 23 24  1  0  0  0  0
 23 25  2  0  0  0  0
 25 26  1  0  0  0  0
 27 25  1  0  0  0  0
 27 28  1  0  0  0  0
 29 27  2  0  0  0  0
 30 29  1  0  0  0  0
 30  1  2  0  0  0  0
 31 20  1  0  0  0  0
 31  5  1  0  0  0  0
 32  5  1  0  0  0  0
 32 34  1  0  0  0  0
 33 32  1  0  0  0  0
 35 36  1  0  0  0  0
 35 32  1  0  0  0  0
 37 35  1  0  0  0  0
 38 35  1  0  0  0  0
 38 40  1  0  0  0  0
 39 38  1  0  0  0  0
 41 42  1  0  0  0  0
 41 38  1  0  0  0  0
 43 41  1  0  0  0  0
 44 41  1  0  0  0  0
M  END
