4
 OpenBabel05122313113D

 32 31  0  0  0  0  0  0  0  0999 V2000
    2.3182   -1.4811    0.7042 N   0  0  0  0  0  0  0  0  0  0  0  0
    2.3193    1.4809   -0.7028 N   0  0  0  0  0  0  0  0  0  0  0  0
    1.3039   -0.6317    0.2605 C   0  0  0  0  0  3  0  0  0  0  0  0
    1.3043    0.6318   -0.2598 C   0  0  0  0  0  3  0  0  0  0  0  0
    1.9583   -2.8463    1.0774 C   0  0  0  0  0  0  0  0  0  0  0  0
    0.8490   -2.9028    1.0865 H   0  0  0  0  0  0  0  0  0  0  0  0
    2.2923   -3.0490    2.1240 H   0  0  0  0  0  0  0  0  0  0  0  0
    2.5077   -3.9315    0.1473 C   0  0  0  0  0  0  0  0  0  0  0  0
    2.1690   -3.7604   -0.8934 H   0  0  0  0  0  0  0  0  0  0  0  0
    2.1568   -4.9360    0.4645 H   0  0  0  0  0  0  0  0  0  0  0  0
    3.6151   -3.9456    0.1357 H   0  0  0  0  0  0  0  0  0  0  0  0
    3.4409   -0.8903    1.4332 C   0  0  0  0  0  0  0  0  0  0  0  0
    3.2370   -0.9232    2.5360 H   0  0  0  0  0  0  0  0  0  0  0  0
    3.4768    0.1837    1.1649 H   0  0  0  0  0  0  0  0  0  0  0  0
    4.8007   -1.5357    1.1680 C   0  0  0  0  0  0  0  0  0  0  0  0
    4.8331   -2.5918    1.5035 H   0  0  0  0  0  0  0  0  0  0  0  0
    5.5971   -0.9920    1.7168 H   0  0  0  0  0  0  0  0  0  0  0  0
    5.0500   -1.5156    0.0873 H   0  0  0  0  0  0  0  0  0  0  0  0
    3.4419    0.8893   -1.4313 C   0  0  0  0  0  0  0  0  0  0  0  0
    3.2381    0.9214   -2.5341 H   0  0  0  0  0  0  0  0  0  0  0  0
    3.4774   -0.1846   -1.1622 H   0  0  0  0  0  0  0  0  0  0  0  0
    4.8019    1.5343   -1.1661 C   0  0  0  0  0  0  0  0  0  0  0  0
    4.8348    2.5901   -1.5025 H   0  0  0  0  0  0  0  0  0  0  0  0
    5.5982    0.9899   -1.7143 H   0  0  0  0  0  0  0  0  0  0  0  0
    5.0509    1.5149   -0.0854 H   0  0  0  0  0  0  0  0  0  0  0  0
    1.9599    2.8459   -1.0772 C   0  0  0  0  0  0  0  0  0  0  0  0
    0.8506    2.9029   -1.0863 H   0  0  0  0  0  0  0  0  0  0  0  0
    2.2939    3.0476   -2.1240 H   0  0  0  0  0  0  0  0  0  0  0  0
    2.5097    3.9319   -0.1483 C   0  0  0  0  0  0  0  0  0  0  0  0
    2.1708    3.7625    0.8926 H   0  0  0  0  0  0  0  0  0  0  0  0
    2.1595    4.9363   -0.4668 H   0  0  0  0  0  0  0  0  0  0  0  0
    3.6171    3.9454   -0.1365 H   0  0  0  0  0  0  0  0  0  0  0  0
  1  5  1  0  0  0  0
  1 12  1  0  0  0  0
  2  4  1  0  0  0  0
  3  1  1  0  0  0  0
  4  3  2  0  0  0  0
  5  6  1  0  0  0  0
  5  7  1  0  0  0  0
  8 10  1  0  0  0  0
  8  5  1  0  0  0  0
  9  8  1  0  0  0  0
 11  8  1  0  0  0  0
 12 13  1  0  0  0  0
 14 12  1  0  0  0  0
 15 12  1  0  0  0  0
 15 16  1  0  0  0  0
 15 17  1  0  0  0  0
 18 15  1  0  0  0  0
 19 22  1  0  0  0  0
 19 21  1  0  0  0  0
 19  2  1  0  0  0  0
 20 19  1  0  0  0  0
 22 25  1  0  0  0  0
 23 22  1  0  0  0  0
 24 22  1  0  0  0  0
 26  2  1  0  0  0  0
 26 29  1  0  0  0  0
 27 26  1  0  0  0  0
 28 26  1  0  0  0  0
 29 32  1  0  0  0  0
 29 30  1  0  0  0  0
 31 29  1  0  0  0  0
M  END
