5
 OpenBabel05122313113D

 37 39  0  0  0  0  0  0  0  0999 V2000
    0.5779    1.1815   -1.0416 N   0  0  0  0  0  0  0  0  0  0  0  0
    0.9831   -0.9559   -0.9970 N   0  0  0  0  0  0  0  0  0  0  0  0
    3.2043    2.9321   -2.6852 N   0  0  0  0  0  0  0  0  0  0  0  0
    4.0783   -1.6735   -2.6146 N   0  0  0  0  0  0  0  0  0  0  0  0
    0.0470   -0.0184   -0.6421 C   0  0  0  0  0  2  0  0  0  0  0  0
    1.8203    1.0066   -1.6442 C   0  0  0  0  0  0  0  0  0  0  0  0
    2.0793   -0.3627   -1.6182 C   0  0  0  0  0  0  0  0  0  0  0  0
   -0.0540    2.4857   -0.7908 C   0  0  0  0  0  0  0  0  0  0  0  0
   -1.0557    2.2266   -0.3845 H   0  0  0  0  0  0  0  0  0  0  0  0
   -0.1881    3.0016   -1.7628 H   0  0  0  0  0  0  0  0  0  0  0  0
    0.7360    3.3475    0.1703 C   0  0  0  0  0  0  0  0  0  0  0  0
    1.2417    4.5935   -0.2437 C   0  0  0  0  0  0  0  0  0  0  0  0
    1.0803    4.9320   -1.2792 H   0  0  0  0  0  0  0  0  0  0  0  0
    1.9647    5.3979    0.6503 C   0  0  0  0  0  0  0  0  0  0  0  0
    2.3600    6.3685    0.3150 H   0  0  0  0  0  0  0  0  0  0  0  0
    2.1917    4.9567    1.9626 C   0  0  0  0  0  0  0  0  0  0  0  0
    2.7629    5.5843    2.6636 H   0  0  0  0  0  0  0  0  0  0  0  0
    1.6914    3.7113    2.3782 C   0  0  0  0  0  0  0  0  0  0  0  0
    1.8641    3.3618    3.4074 H   0  0  0  0  0  0  0  0  0  0  0  0
    0.9640    2.9065    1.4904 C   0  0  0  0  0  0  0  0  0  0  0  0
    0.5648    1.9328    1.8244 H   0  0  0  0  0  0  0  0  0  0  0  0
    0.8683   -2.3903   -0.6897 C   0  0  0  0  0  0  0  0  0  0  0  0
    0.8809   -2.9555   -1.6435 H   0  0  0  0  0  0  0  0  0  0  0  0
   -0.1387   -2.4914   -0.2317 H   0  0  0  0  0  0  0  0  0  0  0  0
    1.9566   -2.8819    0.2400 C   0  0  0  0  0  0  0  0  0  0  0  0
    2.8538   -3.8810   -0.1801 C   0  0  0  0  0  0  0  0  0  0  0  0
    2.7766   -4.2915   -1.1992 H   0  0  0  0  0  0  0  0  0  0  0  0
    3.8565   -4.3432    0.6856 C   0  0  0  0  0  0  0  0  0  0  0  0
    4.5564   -5.1211    0.3454 H   0  0  0  0  0  0  0  0  0  0  0  0
    3.9713   -3.8034    1.9755 C   0  0  0  0  0  0  0  0  0  0  0  0
    4.7606   -4.1613    2.6540 H   0  0  0  0  0  0  0  0  0  0  0  0
    3.0785   -2.8039    2.3975 C   0  0  0  0  0  0  0  0  0  0  0  0
    3.1615   -2.3809    3.4102 H   0  0  0  0  0  0  0  0  0  0  0  0
    2.0717   -2.3431    1.5381 C   0  0  0  0  0  0  0  0  0  0  0  0
    1.3611   -1.5690    1.8760 H   0  0  0  0  0  0  0  0  0  0  0  0
    2.5870    2.0566   -2.2030 C   0  0  0  0  0  0  0  0  0  0  0  0
    3.1794   -1.0763   -2.1502 C   0  0  0  0  0  0  0  0  0  0  0  0
  1  8  1  0  0  0  0
  1  5  1  0  0  0  0
  2 22  1  0  0  0  0
  2  5  1  0  0  0  0
  3 36  3  0  0  0  0
  4 37  3  0  0  0  0
  6  7  2  0  0  0  0
  6  1  1  0  0  0  0
  7  2  1  0  0  0  0
  8  9  1  0  0  0  0
  8 11  1  0  0  0  0
 10  8  1  0  0  0  0
 11 20  1  0  0  0  0
 12 11  2  0  0  0  0
 12 14  1  0  0  0  0
 13 12  1  0  0  0  0
 14 16  2  0  0  0  0
 15 14  1  0  0  0  0
 16 18  1  0  0  0  0
 16 17  1  0  0  0  0
 18 19  1  0  0  0  0
 20 21  1  0  0  0  0
 20 18  2  0  0  0  0
 22 24  1  0  0  0  0
 22 25  1  0  0  0  0
 23 22  1  0  0  0  0
 25 34  1  0  0  0  0
 26 25  2  0  0  0  0
 26 28  1  0  0  0  0
 27 26  1  0  0  0  0
 28 30  2  0  0  0  0
 29 28  1  0  0  0  0
 30 32  1  0  0  0  0
 30 31  1  0  0  0  0
 32 33  1  0  0  0  0
 34 35  1  0  0  0  0
 34 32  2  0  0  0  0
 36  6  1  0  0  0  0
 37  7  1  0  0  0  0
M  END
