12
 OpenBabel05122313113D

 25 25  0  0  1  0  0  0  0  0999 V2000
   -4.5933   -1.3522    1.0792 O   0  0  0  0  0  0  0  0  0  0  0  0
   -2.1632   -1.1346   -1.7028 C   0  0  0  0  0  3  0  0  0  0  0  0
   -1.8614   -1.8304   -2.5053 H   0  0  0  0  0  0  0  0  0  0  0  0
   -2.9179   -1.6431   -0.5799 C   0  0  1  0  0  3  0  0  0  0  0  0
   -3.9784   -0.8617    0.1327 C   0  0  0  0  0  0  0  0  0  0  0  0
   -4.3303    0.5105   -0.4097 C   0  0  0  0  0  0  0  0  0  0  0  0
   -5.2850    0.8213    0.0578 H   0  0  0  0  0  0  0  0  0  0  0  0
   -4.4856    0.4273   -1.5065 H   0  0  0  0  0  0  0  0  0  0  0  0
   -3.2372    1.5617   -0.1390 C   0  0  0  0  0  0  0  0  0  0  0  0
   -1.8634    1.0579   -0.5825 C   0  0  0  0  0  3  0  0  0  0  0  0
   -1.1427    1.8898   -0.5319 H   0  0  0  0  0  0  0  0  0  0  0  0
   -1.6285    0.1864   -1.7065 C   0  0  0  0  0  3  0  0  0  0  0  0
   -0.9170    0.4609   -2.5049 H   0  0  0  0  0  0  0  0  0  0  0  0
   -3.1365   -3.1380   -0.4722 C   0  0  0  0  0  0  0  0  0  0  0  0
   -3.2070   -3.4345    0.5910 H   0  0  0  0  0  0  0  0  0  0  0  0
   -2.3328   -3.7201   -0.9592 H   0  0  0  0  0  0  0  0  0  0  0  0
   -4.1060   -3.4169   -0.9393 H   0  0  0  0  0  0  0  0  0  0  0  0
   -3.2362    1.9539    1.3481 C   0  0  0  0  0  0  0  0  0  0  0  0
   -3.2072    1.0662    2.0056 H   0  0  0  0  0  0  0  0  0  0  0  0
   -4.1531    2.5261    1.5975 H   0  0  0  0  0  0  0  0  0  0  0  0
   -2.3598    2.5910    1.5860 H   0  0  0  0  0  0  0  0  0  0  0  0
   -3.5379    2.8228   -0.9832 C   0  0  0  0  0  0  0  0  0  0  0  0
   -4.5465    3.2205   -0.7456 H   0  0  0  0  0  0  0  0  0  0  0  0
   -3.5027    2.5936   -2.0678 H   0  0  0  0  0  0  0  0  0  0  0  0
   -2.7969    3.6229   -0.7779 H   0  0  0  0  0  0  0  0  0  0  0  0
  2  4  1  0  0  0  0
  3  2  1  0  0  0  0
  4 14  1  6  0  0  0
  4  5  1  0  0  0  0
  5  1  2  0  0  0  0
  6  9  1  0  0  0  0
  6  7  1  0  0  0  0
  6  5  1  0  0  0  0
  8  6  1  0  0  0  0
  9 18  1  0  0  0  0
 10 11  1  0  0  0  0
 10  9  1  0  0  0  0
 12  2  1  0  0  0  0
 12 10  1  0  0  0  0
 13 12  1  0  0  0  0
 14 15  1  0  0  0  0
 16 14  1  0  0  0  0
 17 14  1  0  0  0  0
 18 21  1  0  0  0  0
 18 20  1  0  0  0  0
 18 19  1  0  0  0  0
 22 25  1  0  0  0  0
 22 23  1  0  0  0  0
 22  9  1  0  0  0  0
 24 22  1  0  0  0  0
M  END
