1
 OpenBabel05122313113D

 27 28  0  0  1  0  0  0  0  0999 V2000
    1.1976   -0.6053    0.2627 C   0  0  0  0  0  3  0  0  0  0  0  0
    1.0093    0.4470    0.5269 H   0  0  0  0  0  0  0  0  0  0  0  0
    2.2149   -0.6726   -0.9172 C   0  0  1  0  0  0  0  0  0  0  0  0
    2.3755    0.3596   -1.2939 H   0  0  0  0  0  0  0  0  0  0  0  0
    3.4790   -1.1873   -0.1757 C   0  0  1  0  0  0  0  0  0  0  0  0
    4.2949   -1.4846   -0.8623 H   0  0  0  0  0  0  0  0  0  0  0  0
    3.9356   -0.1219    0.8866 C   0  0  2  0  0  0  0  0  0  0  0  0
    4.9620   -0.3797    1.2161 H   0  0  0  0  0  0  0  0  0  0  0  0
    2.8935   -0.2919    2.0282 C   0  0  0  0  0  0  0  0  0  0  0  0
    3.3748   -0.6975    2.9408 H   0  0  0  0  0  0  0  0  0  0  0  0
    2.4129    0.6701    2.2913 H   0  0  0  0  0  0  0  0  0  0  0  0
    1.9061   -1.3295    1.4371 C   0  0  2  0  0  0  0  0  0  0  0  0
    1.2268   -1.7822    2.1824 H   0  0  0  0  0  0  0  0  0  0  0  0
    2.8845   -2.2836    0.7294 C   0  0  0  0  0  0  0  0  0  0  0  0
    2.3675   -3.0896    0.1760 H   0  0  0  0  0  0  0  0  0  0  0  0
    3.6265   -2.7303    1.4225 H   0  0  0  0  0  0  0  0  0  0  0  0
    1.8638   -1.5419   -2.1314 C   0  0  0  0  0  0  0  0  0  0  0  0
    2.6886   -1.5084   -2.8736 H   0  0  0  0  0  0  0  0  0  0  0  0
    0.9411   -1.1726   -2.6242 H   0  0  0  0  0  0  0  0  0  0  0  0
    1.6674   -2.5934   -1.8494 H   0  0  0  0  0  0  0  0  0  0  0  0
    3.9818    1.2755    0.3072 C   0  0  0  0  0  0  0  0  0  0  0  0
    3.1377    2.1479    0.4472 O   0  0  0  0  0  0  0  0  0  0  0  0
    5.0866    1.4460   -0.4603 O   0  0  0  0  0  0  0  0  0  0  0  0
    5.1845    2.7092   -1.1280 C   0  0  0  0  0  0  0  0  0  0  0  0
    4.3355    2.8530   -1.8272 H   0  0  0  0  0  0  0  0  0  0  0  0
    6.1392    2.6905   -1.6831 H   0  0  0  0  0  0  0  0  0  0  0  0
    5.1757    3.5445   -0.3991 H   0  0  0  0  0  0  0  0  0  0  0  0
  1  2  1  0  0  0  0
  1 12  1  0  0  0  0
  3  4  1  6  0  0  0
  3  5  1  0  0  0  0
  3  1  1  0  0  0  0
  5  6  1  6  0  0  0
  5 14  1  0  0  0  0
  5  7  1  0  0  0  0
  7  8  1  1  0  0  0
  7  9  1  0  0  0  0
  9 11  1  0  0  0  0
  9 10  1  0  0  0  0
 12  9  1  0  0  0  0
 12 13  1  1  0  0  0
 14 16  1  0  0  0  0
 14 12  1  0  0  0  0
 15 14  1  0  0  0  0
 17 20  1  0  0  0  0
 17  3  1  0  0  0  0
 18 17  1  0  0  0  0
 19 17  1  0  0  0  0
 21 22  2  0  0  0  0
 21  7  1  0  0  0  0
 23 21  1  0  0  0  0
 24 23  1  0  0  0  0
 24 27  1  0  0  0  0
 25 24  1  0  0  0  0
 26 24  1  0  0  0  0
M  END
