1
 OpenBabel05122313113D

 26 26  0  0  0  0  0  0  0  0999 V2000
    1.6348   -1.0610    0.0092 C   0  0  0  0  0  3  0  0  0  0  0  0
    1.9702   -1.6622    0.8856 H   0  0  0  0  0  0  0  0  0  0  0  0
    1.3525   -2.3876   -1.3218 Si  0  0  0  0  0  0  0  0  0  0  0  0
    0.9833   -1.6649   -3.0344 C   0  0  0  0  0  0  0  0  0  0  0  0
    1.7955   -0.9846   -3.3604 H   0  0  0  0  0  0  0  0  0  0  0  0
    0.9132   -2.4881   -3.7756 H   0  0  0  0  0  0  0  0  0  0  0  0
    0.0324   -1.0985   -3.0712 H   0  0  0  0  0  0  0  0  0  0  0  0
    2.9376   -3.4252   -1.4899 C   0  0  0  0  0  0  0  0  0  0  0  0
    3.7993   -2.7807   -1.7600 H   0  0  0  0  0  0  0  0  0  0  0  0
    3.1859   -3.9340   -0.5348 H   0  0  0  0  0  0  0  0  0  0  0  0
    2.8332   -4.2052   -2.2727 H   0  0  0  0  0  0  0  0  0  0  0  0
   -0.0515   -3.5876   -0.8600 C   0  0  0  0  0  0  0  0  0  0  0  0
   -0.9921   -3.0631   -0.5963 H   0  0  0  0  0  0  0  0  0  0  0  0
   -0.2721   -4.2528   -1.7208 H   0  0  0  0  0  0  0  0  0  0  0  0
    0.2379   -4.2432   -0.0127 H   0  0  0  0  0  0  0  0  0  0  0  0
    2.7706   -0.1766   -0.4016 C   0  0  0  0  0  0  0  0  0  0  0  0
    4.0818   -0.3486    0.1141 C   0  0  0  0  0  0  0  0  0  0  0  0
    4.2656   -1.1707    0.8258 H   0  0  0  0  0  0  0  0  0  0  0  0
    5.1386    0.4975   -0.2529 C   0  0  0  0  0  0  0  0  0  0  0  0
    6.1395    0.3345    0.1774 H   0  0  0  0  0  0  0  0  0  0  0  0
    4.9294    1.5441   -1.1660 C   0  0  0  0  0  0  0  0  0  0  0  0
    5.7568    2.2101   -1.4537 H   0  0  0  0  0  0  0  0  0  0  0  0
    3.6461    1.7213   -1.7100 C   0  0  0  0  0  0  0  0  0  0  0  0
    3.4578    2.5331   -2.4302 H   0  0  0  0  0  0  0  0  0  0  0  0
    2.5923    0.8771   -1.3340 C   0  0  0  0  0  0  0  0  0  0  0  0
    1.5901    1.0389   -1.7570 H   0  0  0  0  0  0  0  0  0  0  0  0
  1  2  1  0  0  0  0
  3 12  1  0  0  0  0
  3  1  1  0  0  0  0
  4  3  1  0  0  0  0
  5  4  1  0  0  0  0
  6  4  1  0  0  0  0
  7  4  1  0  0  0  0
  8  3  1  0  0  0  0
  8 10  1  0  0  0  0
  9  8  1  0  0  0  0
 11  8  1  0  0  0  0
 12 13  1  0  0  0  0
 12 15  1  0  0  0  0
 14 12  1  0  0  0  0
 16  1  1  0  0  0  0
 16 17  1  0  0  0  0
 17 18  1  0  0  0  0
 19 17  2  0  0  0  0
 19 20  1  0  0  0  0
 21 19  1  0  0  0  0
 22 21  1  0  0  0  0
 23 25  1  0  0  0  0
 23 21  2  0  0  0  0
 24 23  1  0  0  0  0
 25 16  2  0  0  0  0
 26 25  1  0  0  0  0
M  END
