4
 OpenBabel05122313113D

 27 26  0  0  1  0  0  0  0  0999 V2000
   -0.4576   -1.7858    1.3464 O   0  0  0  0  0  0  0  0  0  0  0  0
   -5.5106   -1.6128    0.0376 O   0  0  0  0  0  0  0  0  0  0  0  0
   -4.3956    0.3724    0.2291 O   0  0  0  0  0  0  0  0  0  0  0  0
   -0.6301   -1.4460    0.1782 C   0  0  0  0  0  3  0  0  0  0  0  0
   -2.0527   -1.1701   -0.3114 C   0  0  0  0  0  0  0  0  0  0  0  0
   -3.1597   -1.6014    0.6680 C   0  0  1  0  0  0  0  0  0  0  0  0
   -4.4950   -0.9797    0.2752 C   0  0  0  0  0  0  0  0  0  0  0  0
   -3.2788   -3.1201    0.7897 C   0  0  0  0  0  0  0  0  0  0  0  0
   -5.5424    1.2133   -0.1550 C   0  0  0  0  0  0  0  0  0  0  0  0
   -5.9850    0.8730   -1.5826 C   0  0  0  0  0  0  0  0  0  0  0  0
   -6.6771    1.0402    0.8609 C   0  0  0  0  0  0  0  0  0  0  0  0
   -4.9668    2.6294   -0.0901 C   0  0  0  0  0  0  0  0  0  0  0  0
   -2.1900   -1.6358   -1.3100 H   0  0  0  0  0  0  0  0  0  0  0  0
   -2.0986   -0.0730   -0.4819 H   0  0  0  0  0  0  0  0  0  0  0  0
   -2.8811   -1.1702    1.6551 H   0  0  0  0  0  0  0  0  0  0  0  0
   -4.0844   -3.4045    1.4934 H   0  0  0  0  0  0  0  0  0  0  0  0
   -3.5273   -3.5738   -0.1912 H   0  0  0  0  0  0  0  0  0  0  0  0
   -2.3237   -3.5423    1.1549 H   0  0  0  0  0  0  0  0  0  0  0  0
   -6.7674    1.5865   -1.9104 H   0  0  0  0  0  0  0  0  0  0  0  0
   -6.3915   -0.1529   -1.6363 H   0  0  0  0  0  0  0  0  0  0  0  0
   -5.1278    0.9575   -2.2803 H   0  0  0  0  0  0  0  0  0  0  0  0
   -7.4938    1.7547    0.6344 H   0  0  0  0  0  0  0  0  0  0  0  0
   -7.0814    0.0126    0.8283 H   0  0  0  0  0  0  0  0  0  0  0  0
   -6.3100    1.2498    1.8856 H   0  0  0  0  0  0  0  0  0  0  0  0
   -5.7485    3.3724   -0.3430 H   0  0  0  0  0  0  0  0  0  0  0  0
   -4.1288    2.7402   -0.8059 H   0  0  0  0  0  0  0  0  0  0  0  0
   -4.5855    2.8457    0.9272 H   0  0  0  0  0  0  0  0  0  0  0  0
  2  7  2  0  0  0  0
  3  7  1  0  0  0  0
  4  1  2  0  0  0  0
  5  4  1  0  0  0  0
  5  6  1  0  0  0  0
  6  8  1  0  0  0  0
  6 15  1  1  0  0  0
  7  6  1  0  0  0  0
  8 18  1  0  0  0  0
  8 16  1  0  0  0  0
  9 12  1  0  0  0  0
  9  3  1  0  0  0  0
  9 11  1  0  0  0  0
 10  9  1  0  0  0  0
 11 24  1  0  0  0  0
 12 27  1  0  0  0  0
 13  5  1  0  0  0  0
 14  5  1  0  0  0  0
 17  8  1  0  0  0  0
 19 10  1  0  0  0  0
 20 10  1  0  0  0  0
 21 10  1  0  0  0  0
 22 11  1  0  0  0  0
 23 11  1  0  0  0  0
 25 12  1  0  0  0  0
 26 12  1  0  0  0  0
M  END
