1
 OpenBabel05122313113D

 38 39  0  0  1  0  0  0  0  0999 V2000
    0.2235   -0.3063   -0.3721 C   0  0  0  0  0  3  0  0  0  0  0  0
   -1.0068    0.6769   -0.3182 C   0  0  0  0  0  0  0  0  0  0  0  0
   -0.9505    1.6500   -1.5186 C   0  0  0  0  0  0  0  0  0  0  0  0
   -1.9619    2.8014   -1.4737 C   0  0  0  0  0  0  0  0  0  0  0  0
   -1.8709    3.5600   -0.1449 C   0  0  0  0  0  0  0  0  0  0  0  0
   -2.1297    2.6210    1.0385 C   0  0  0  0  0  0  0  0  0  0  0  0
   -1.1784    1.4140    1.0236 C   0  0  0  0  0  0  0  0  0  0  0  0
   -1.7695   -0.6394   -0.5755 C   0  0  1  0  0  3  0  0  0  0  0  0
   -0.5811   -1.3656   -0.8504 C   0  0  0  0  0  0  0  0  0  0  0  0
   -0.2540   -2.7293   -1.3676 C   0  0  0  0  0  0  0  0  0  0  0  0
   -3.0455   -1.0093   -0.3977 N   0  0  0  0  0  0  0  0  0  0  0  0
   -3.3961   -2.4409   -0.3901 C   0  0  0  0  0  0  0  0  0  0  0  0
   -3.0171   -3.1501    0.9105 C   0  0  0  0  0  0  0  0  0  0  0  0
   -4.1217   -0.0487   -0.1452 C   0  0  0  0  0  0  0  0  0  0  0  0
   -4.6851   -0.0798    1.2742 C   0  0  0  0  0  0  0  0  0  0  0  0
   -1.0335    1.0694   -2.4603 H   0  0  0  0  0  0  0  0  0  0  0  0
    0.0699    2.0886   -1.5231 H   0  0  0  0  0  0  0  0  0  0  0  0
   -2.9987    2.4198   -1.6180 H   0  0  0  0  0  0  0  0  0  0  0  0
   -1.7743    3.4861   -2.3269 H   0  0  0  0  0  0  0  0  0  0  0  0
   -2.5834    4.4107   -0.1277 H   0  0  0  0  0  0  0  0  0  0  0  0
   -0.8519    3.9968   -0.0498 H   0  0  0  0  0  0  0  0  0  0  0  0
   -3.1926    2.2968    1.0222 H   0  0  0  0  0  0  0  0  0  0  0  0
   -2.0032    3.1645    1.9980 H   0  0  0  0  0  0  0  0  0  0  0  0
   -0.1657    1.7875    1.2812 H   0  0  0  0  0  0  0  0  0  0  0  0
   -1.4308    0.6879    1.8247 H   0  0  0  0  0  0  0  0  0  0  0  0
    0.7987   -2.7563   -1.7053 H   0  0  0  0  0  0  0  0  0  0  0  0
   -0.3676   -3.5250   -0.6004 H   0  0  0  0  0  0  0  0  0  0  0  0
   -0.8859   -3.0029   -2.2361 H   0  0  0  0  0  0  0  0  0  0  0  0
   -2.8973   -2.9288   -1.2497 H   0  0  0  0  0  0  0  0  0  0  0  0
   -4.4866   -2.5130   -0.5765 H   0  0  0  0  0  0  0  0  0  0  0  0
   -3.2502   -4.2310    0.8357 H   0  0  0  0  0  0  0  0  0  0  0  0
   -1.9330   -3.0479    1.1140 H   0  0  0  0  0  0  0  0  0  0  0  0
   -3.5657   -2.7384    1.7795 H   0  0  0  0  0  0  0  0  0  0  0  0
   -4.9302   -0.2496   -0.8822 H   0  0  0  0  0  0  0  0  0  0  0  0
   -3.7246    0.9541   -0.3802 H   0  0  0  0  0  0  0  0  0  0  0  0
   -5.4563    0.7080    1.3870 H   0  0  0  0  0  0  0  0  0  0  0  0
   -5.1655   -1.0497    1.5114 H   0  0  0  0  0  0  0  0  0  0  0  0
   -3.8904    0.1073    2.0230 H   0  0  0  0  0  0  0  0  0  0  0  0
  1  2  1  0  0  0  0
  2  7  1  0  0  0  0
  3  4  1  0  0  0  0
  3  2  1  0  0  0  0
  4  5  1  0  0  0  0
  5 20  1  0  0  0  0
  5 21  1  0  0  0  0
  5  6  1  0  0  0  0
  6 23  1  0  0  0  0
  7  6  1  0  0  0  0
  7 24  1  0  0  0  0
  7 25  1  0  0  0  0
  8 11  1  1  0  0  0
  8  2  1  0  0  0  0
  9  8  1  0  0  0  0
  9  1  2  0  0  0  0
 10  9  1  0  0  0  0
 10 27  1  0  0  0  0
 11 12  1  0  0  0  0
 11 14  1  0  0  0  0
 12 13  1  0  0  0  0
 13 32  1  0  0  0  0
 13 33  1  0  0  0  0
 14 15  1  0  0  0  0
 15 36  1  0  0  0  0
 15 37  1  0  0  0  0
 15 38  1  0  0  0  0
 16  3  1  0  0  0  0
 17  3  1  0  0  0  0
 18  4  1  0  0  0  0
 19  4  1  0  0  0  0
 22  6  1  0  0  0  0
 26 10  1  0  0  0  0
 28 10  1  0  0  0  0
 29 12  1  0  0  0  0
 30 12  1  0  0  0  0
 31 13  1  0  0  0  0
 34 14  1  0  0  0  0
 35 14  1  0  0  0  0
M  END
