4
 OpenBabel05122313113D

 22 23  0  0  0  0  0  0  0  0999 V2000
   -3.0886   -0.6462    1.1762 S   0  0  0  0  0  0  0  0  0  0  0  0
   -2.1969    1.1080   -1.0864 S   0  0  0  0  0  0  0  0  0  0  0  0
   -0.4874   -0.5658    0.3648 C   0  0  0  0  0  0  0  0  0  0  0  0
    0.3517   -1.0632    1.4141 C   0  0  0  0  0  3  0  0  0  0  0  0
    0.3042   -0.7660    2.4685 H   0  0  0  0  0  0  0  0  0  0  0  0
    1.2627   -2.0229    0.8577 C   0  0  0  0  0  0  0  0  0  0  0  0
    2.0547   -2.5546    1.3976 H   0  0  0  0  0  0  0  0  0  0  0  0
    0.9902   -2.1162   -0.5387 C   0  0  0  0  0  0  0  0  0  0  0  0
    1.5742   -2.6915   -1.2641 H   0  0  0  0  0  0  0  0  0  0  0  0
   -0.0753   -1.2281   -0.8518 C   0  0  0  0  0  0  0  0  0  0  0  0
   -0.4898   -1.0180   -1.8440 H   0  0  0  0  0  0  0  0  0  0  0  0
   -1.6632    0.3713    0.5495 C   0  0  0  0  0  0  0  0  0  0  0  0
   -3.6040   -1.1721   -0.4903 C   0  0  0  0  0  0  0  0  0  0  0  0
   -2.8730   -1.8964   -0.9063 H   0  0  0  0  0  0  0  0  0  0  0  0
   -4.5837   -1.6823   -0.3886 H   0  0  0  0  0  0  0  0  0  0  0  0
   -3.7044    0.0862   -1.3447 C   0  0  0  0  0  0  0  0  0  0  0  0
   -4.5953    0.6816   -1.0619 H   0  0  0  0  0  0  0  0  0  0  0  0
   -3.7641   -0.1581   -2.4259 H   0  0  0  0  0  0  0  0  0  0  0  0
   -1.3958    1.4950    1.5552 C   0  0  0  0  0  0  0  0  0  0  0  0
   -1.0956    1.0861    2.5412 H   0  0  0  0  0  0  0  0  0  0  0  0
   -2.3088    2.1040    1.6866 H   0  0  0  0  0  0  0  0  0  0  0  0
   -0.5788    2.1481    1.1935 H   0  0  0  0  0  0  0  0  0  0  0  0
  2 12  1  0  0  0  0
  3 12  1  0  0  0  0
  3  4  1  0  0  0  0
  4  5  1  0  0  0  0
  6  7  1  0  0  0  0
  6  4  1  0  0  0  0
  8  6  2  0  0  0  0
  9  8  1  0  0  0  0
 10  8  1  0  0  0  0
 10  3  2  0  0  0  0
 11 10  1  0  0  0  0
 12  1  1  0  0  0  0
 12 19  1  0  0  0  0
 13 15  1  0  0  0  0
 13  1  1  0  0  0  0
 14 13  1  0  0  0  0
 16  2  1  0  0  0  0
 16 17  1  0  0  0  0
 16 13  1  0  0  0  0
 18 16  1  0  0  0  0
 19 21  1  0  0  0  0
 19 20  1  0  0  0  0
 22 19  1  0  0  0  0
M  END
