3
 OpenBabel05122313113D

 33 33  0  0  0  0  0  0  0  0999 V2000
    1.7164    1.4468    0.6956 P   0  0  0  0  0  0  0  0  0  0  0  0
    0.2788    1.8684   -0.2957 C   0  0  0  0  0  0  0  0  0  0  0  0
    0.1977    1.0321   -1.4550 C   0  0  0  0  0  3  0  0  0  0  0  0
    1.2602    0.0684   -1.5834 C   0  0  0  0  0  0  0  0  0  0  0  0
    2.1531    0.1044   -0.4854 C   0  0  0  0  0  0  0  0  0  0  0  0
   -0.6642    3.0272    0.0189 C   0  0  0  0  0  0  0  0  0  0  0  0
   -0.0017    4.3245   -0.5003 C   0  0  0  0  0  0  0  0  0  0  0  0
   -0.8801    3.1344    1.5405 C   0  0  0  0  0  0  0  0  0  0  0  0
   -2.0316    2.8443   -0.6662 C   0  0  0  0  0  0  0  0  0  0  0  0
    3.3956   -0.7701   -0.3408 C   0  0  0  0  0  0  0  0  0  0  0  0
    4.4976   -0.1382   -1.2233 C   0  0  0  0  0  0  0  0  0  0  0  0
    3.8823   -0.8093    1.1202 C   0  0  0  0  0  0  0  0  0  0  0  0
    3.1185   -2.2110   -0.8107 C   0  0  0  0  0  0  0  0  0  0  0  0
   -0.6267    1.0850   -2.1785 H   0  0  0  0  0  0  0  0  0  0  0  0
    1.3269   -0.6329   -2.4263 H   0  0  0  0  0  0  0  0  0  0  0  0
    0.1793    4.2675   -1.5928 H   0  0  0  0  0  0  0  0  0  0  0  0
    0.9749    4.4954   -0.0039 H   0  0  0  0  0  0  0  0  0  0  0  0
   -0.6512    5.2027   -0.3028 H   0  0  0  0  0  0  0  0  0  0  0  0
    0.0812    3.2696    2.0776 H   0  0  0  0  0  0  0  0  0  0  0  0
   -1.3544    2.2110    1.9283 H   0  0  0  0  0  0  0  0  0  0  0  0
   -1.5317    3.9986    1.7835 H   0  0  0  0  0  0  0  0  0  0  0  0
   -1.9431    2.8352   -1.7711 H   0  0  0  0  0  0  0  0  0  0  0  0
   -2.7022    3.6855   -0.3965 H   0  0  0  0  0  0  0  0  0  0  0  0
   -2.5176    1.9010   -0.3486 H   0  0  0  0  0  0  0  0  0  0  0  0
    4.7066    0.9039   -0.9072 H   0  0  0  0  0  0  0  0  0  0  0  0
    5.4402   -0.7188   -1.1458 H   0  0  0  0  0  0  0  0  0  0  0  0
    4.1907   -0.1142   -2.2884 H   0  0  0  0  0  0  0  0  0  0  0  0
    4.1160    0.2071    1.4974 H   0  0  0  0  0  0  0  0  0  0  0  0
    4.8056   -1.4186    1.1991 H   0  0  0  0  0  0  0  0  0  0  0  0
    3.1199   -1.2541    1.7896 H   0  0  0  0  0  0  0  0  0  0  0  0
    2.7946   -2.2482   -1.8700 H   0  0  0  0  0  0  0  0  0  0  0  0
    4.0363   -2.8276   -0.7214 H   0  0  0  0  0  0  0  0  0  0  0  0
    2.3252   -2.6767   -0.1925 H   0  0  0  0  0  0  0  0  0  0  0  0
  2  6  1  0  0  0  0
  2  1  2  0  0  0  0
  3  2  1  0  0  0  0
  4  3  1  0  0  0  0
  4  5  2  0  0  0  0
  5 10  1  0  0  0  0
  5  1  1  0  0  0  0
  6  8  1  0  0  0  0
  7 18  1  0  0  0  0
  7 17  1  0  0  0  0
  7  6  1  0  0  0  0
  8 21  1  0  0  0  0
  8 20  1  0  0  0  0
  8 19  1  0  0  0  0
  9 23  1  0  0  0  0
  9 24  1  0  0  0  0
  9  6  1  0  0  0  0
 10 12  1  0  0  0  0
 11 26  1  0  0  0  0
 11 25  1  0  0  0  0
 11 10  1  0  0  0  0
 12 29  1  0  0  0  0
 12 28  1  0  0  0  0
 12 30  1  0  0  0  0
 13 32  1  0  0  0  0
 13 10  1  0  0  0  0
 13 33  1  0  0  0  0
 14  3  1  0  0  0  0
 15  4  1  0  0  0  0
 16  7  1  0  0  0  0
 22  9  1  0  0  0  0
 27 11  1  0  0  0  0
 31 13  1  0  0  0  0
M  END
