1
 OpenBabel05122313113D

 18 18  0  0  0  0  0  0  0  0999 V2000
   -0.1745    0.8917    0.0008 C   0  0  0  0  0  2  0  0  0  0  0  0
   -0.4181    2.4124    0.0011 C   0  0  0  0  0  0  0  0  0  0  0  0
   -0.0444    2.9522    0.8993 H   0  0  0  0  0  0  0  0  0  0  0  0
   -0.0430    2.9533   -0.8957 H   0  0  0  0  0  0  0  0  0  0  0  0
   -1.9260    2.0889    0.0002 C   0  0  0  0  0  0  0  0  0  0  0  0
   -2.9421    2.7632   -0.0010 O   0  0  0  0  0  0  0  0  0  0  0  0
   -1.5904    0.6320    0.0006 C   0  0  0  0  0  0  0  0  0  0  0  0
   -2.2413   -0.6128    0.0005 C   0  0  0  0  0  0  0  0  0  0  0  0
   -1.5891   -1.5016    0.0009 H   0  0  0  0  0  0  0  0  0  0  0  0
   -3.5443   -0.8915    0.0002 N   0  0  0  0  0  0  0  0  0  0  0  0
   -4.0063   -2.2742   -0.0001 C   0  0  0  0  0  0  0  0  0  0  0  0
   -3.1456   -2.9665    0.0012 H   0  0  0  0  0  0  0  0  0  0  0  0
   -4.6273   -2.4689   -0.8995 H   0  0  0  0  0  0  0  0  0  0  0  0
   -4.6297   -2.4685    0.8978 H   0  0  0  0  0  0  0  0  0  0  0  0
   -4.5944    0.1231   -0.0001 C   0  0  0  0  0  0  0  0  0  0  0  0
   -5.2335   -0.0098    0.8978 H   0  0  0  0  0  0  0  0  0  0  0  0
   -5.2339   -0.0108   -0.8977 H   0  0  0  0  0  0  0  0  0  0  0  0
   -4.1664    1.1456   -0.0009 H   0  0  0  0  0  0  0  0  0  0  0  0
  1  2  1  0  0  0  0
  2  3  1  0  0  0  0
  4  2  1  0  0  0  0
  5  7  1  0  0  0  0
  5  2  1  0  0  0  0
  6  5  2  0  0  0  0
  7  1  1  0  0  0  0
  8  7  2  0  0  0  0
  8  9  1  0  0  0  0
 10  8  1  0  0  0  0
 11 10  1  0  0  0  0
 11 12  1  0  0  0  0
 11 14  1  0  0  0  0
 13 11  1  0  0  0  0
 15 10  1  0  0  0  0
 15 16  1  0  0  0  0
 17 15  1  0  0  0  0
 18 15  1  0  0  0  0
M  END
