5
 OpenBabel05122313113D

 35 36  0  0  1  0  0  0  0  0999 V2000
    0.9100   -1.5433   -0.8905 C   0  0  2  0  0  3  0  0  0  0  0  0
    0.5472   -2.8421   -0.3689 C   0  0  0  0  0  0  0  0  0  0  0  0
   -0.8084   -3.0964   -0.7361 C   0  0  0  0  0  0  0  0  0  0  0  0
   -1.2865   -1.9768   -1.5050 C   0  0  1  0  0  3  0  0  0  0  0  0
   -0.2256   -1.0192   -1.6094 C   0  0  2  0  0  3  0  0  0  0  0  0
    1.4596   -3.8082    0.3237 C   0  0  0  0  0  0  0  0  0  0  0  0
    1.1775   -4.8515    0.0829 H   0  0  0  0  0  0  0  0  0  0  0  0
    1.4246   -3.6916    1.4267 H   0  0  0  0  0  0  0  0  0  0  0  0
    2.5081   -3.6493    0.0060 H   0  0  0  0  0  0  0  0  0  0  0  0
   -1.5863   -4.3425   -0.4477 C   0  0  0  0  0  0  0  0  0  0  0  0
   -1.6054   -5.0074   -1.3381 H   0  0  0  0  0  0  0  0  0  0  0  0
   -2.6338   -4.1040   -0.1794 H   0  0  0  0  0  0  0  0  0  0  0  0
   -1.1481   -4.9125    0.3929 H   0  0  0  0  0  0  0  0  0  0  0  0
   -2.6305   -1.8922   -2.1612 C   0  0  0  0  0  0  0  0  0  0  0  0
   -2.8874   -0.8549   -2.4480 H   0  0  0  0  0  0  0  0  0  0  0  0
   -3.4293   -2.2667   -1.4927 H   0  0  0  0  0  0  0  0  0  0  0  0
   -2.6439   -2.5059   -3.0877 H   0  0  0  0  0  0  0  0  0  0  0  0
   -0.2924    0.2678   -2.3745 C   0  0  0  0  0  0  0  0  0  0  0  0
   -0.0304    0.1017   -3.4415 H   0  0  0  0  0  0  0  0  0  0  0  0
    0.4031    1.0266   -1.9719 H   0  0  0  0  0  0  0  0  0  0  0  0
   -1.3083    0.7047   -2.3534 H   0  0  0  0  0  0  0  0  0  0  0  0
    2.2518   -0.9280   -0.8060 C   0  0  0  0  0  0  0  0  0  0  0  0
    2.8319   -0.3175   -1.9415 C   0  0  0  0  0  0  0  0  0  0  0  0
    2.2855   -0.3122   -2.8947 H   0  0  0  0  0  0  0  0  0  0  0  0
    4.1097    0.2531   -1.8828 C   0  0  0  0  0  0  0  0  0  0  0  0
    4.5339    0.7194   -2.7862 H   0  0  0  0  0  0  0  0  0  0  0  0
    4.8659    0.2359   -0.6943 C   0  0  0  0  0  0  0  0  0  0  0  0
    4.2959   -0.3931    0.4317 C   0  0  0  0  0  0  0  0  0  0  0  0
    4.8613   -0.4256    1.3767 H   0  0  0  0  0  0  0  0  0  0  0  0
    3.0182   -0.9605    0.3832 C   0  0  0  0  0  0  0  0  0  0  0  0
    2.5825   -1.3973    1.2925 H   0  0  0  0  0  0  0  0  0  0  0  0
    6.2142    0.9025   -0.6128 C   0  0  0  0  0  0  0  0  0  0  0  0
    6.1188    1.9294   -0.1970 H   0  0  0  0  0  0  0  0  0  0  0  0
    6.6882    0.9955   -1.6094 H   0  0  0  0  0  0  0  0  0  0  0  0
    6.9061    0.3481    0.0520 H   0  0  0  0  0  0  0  0  0  0  0  0
  1 22  1  6  0  0  0
  1  2  1  0  0  0  0
  2  6  1  0  0  0  0
  3 10  1  0  0  0  0
  3  2  2  0  0  0  0
  4 14  1  6  0  0  0
  4  3  1  0  0  0  0
  5 18  1  6  0  0  0
  5  4  1  0  0  0  0
  5  1  1  0  0  0  0
  6  8  1  0  0  0  0
  7  6  1  0  0  0  0
  9  6  1  0  0  0  0
 10 12  1  0  0  0  0
 10 13  1  0  0  0  0
 11 10  1  0  0  0  0
 14 16  1  0  0  0  0
 15 14  1  0  0  0  0
 17 14  1  0  0  0  0
 18 21  1  0  0  0  0
 18 20  1  0  0  0  0
 19 18  1  0  0  0  0
 22 30  1  0  0  0  0
 23 25  1  0  0  0  0
 23 22  2  0  0  0  0
 24 23  1  0  0  0  0
 25 27  2  0  0  0  0
 26 25  1  0  0  0  0
 27 32  1  0  0  0  0
 27 28  1  0  0  0  0
 28 29  1  0  0  0  0
 30 28  2  0  0  0  0
 30 31  1  0  0  0  0
 32 33  1  0  0  0  0
 32 35  1  0  0  0  0
 34 32  1  0  0  0  0
M  END
