2
 OpenBabel05122313113D

 21 20  0  0  0  0  0  0  0  0999 V2000
   -0.9821   -3.0754   -0.2313 N   0  0  0  0  0  0  0  0  0  0  0  0
   -0.8517   -2.0603   -1.2664 C   0  0  0  0  0  3  0  0  0  0  0  0
   -2.0185   -1.3801   -1.8830 C   0  0  0  0  0  0  0  0  0  0  0  0
   -3.1917   -1.4353   -1.5383 O   0  0  0  0  0  0  0  0  0  0  0  0
   -1.5760   -0.6151   -2.9170 O   0  0  0  0  0  0  0  0  0  0  0  0
   -2.5729    0.1926   -3.5885 C   0  0  0  0  0  0  0  0  0  0  0  0
   -2.8226    1.5109   -2.8759 C   0  0  0  0  0  0  0  0  0  0  0  0
   -0.0586   -4.2140   -0.3438 C   0  0  0  0  0  0  0  0  0  0  0  0
   -2.2948   -3.4813    0.2997 C   0  0  0  0  0  0  0  0  0  0  0  0
   -0.0569   -2.2843   -1.9943 H   0  0  0  0  0  0  0  0  0  0  0  0
   -3.5083   -0.3977   -3.6674 H   0  0  0  0  0  0  0  0  0  0  0  0
   -2.1563    0.3490   -4.6027 H   0  0  0  0  0  0  0  0  0  0  0  0
   -3.5521    2.1136   -3.4539 H   0  0  0  0  0  0  0  0  0  0  0  0
   -1.8914    2.1007   -2.7742 H   0  0  0  0  0  0  0  0  0  0  0  0
   -3.2385    1.3472   -1.8635 H   0  0  0  0  0  0  0  0  0  0  0  0
   -0.4572   -4.9738   -1.0527 H   0  0  0  0  0  0  0  0  0  0  0  0
    0.0667   -4.6705    0.6565 H   0  0  0  0  0  0  0  0  0  0  0  0
    0.9296   -3.8653   -0.6966 H   0  0  0  0  0  0  0  0  0  0  0  0
   -2.1364   -3.8921    1.3146 H   0  0  0  0  0  0  0  0  0  0  0  0
   -2.7550   -4.2505   -0.3575 H   0  0  0  0  0  0  0  0  0  0  0  0
   -2.9753   -2.6162    0.3418 H   0  0  0  0  0  0  0  0  0  0  0  0
  1  9  1  0  0  0  0
  2  1  1  0  0  0  0
  3  4  2  0  0  0  0
  3  2  1  0  0  0  0
  5  3  1  0  0  0  0
  6  5  1  0  0  0  0
  6  7  1  0  0  0  0
  7 14  1  0  0  0  0
  7 15  1  0  0  0  0
  8  1  1  0  0  0  0
  8 17  1  0  0  0  0
  9 21  1  0  0  0  0
  9 19  1  0  0  0  0
 10  2  1  0  0  0  0
 11  6  1  0  0  0  0
 12  6  1  0  0  0  0
 13  7  1  0  0  0  0
 16  8  1  0  0  0  0
 18  8  1  0  0  0  0
 20  9  1  0  0  0  0
M  END
