5
 OpenBabel05122313113D

 25 26  0  0  1  0  0  0  0  0999 V2000
    0.3942    2.1368    0.8700 C   0  0  0  0  0  0  0  0  0  0  0  0
    1.5485    2.2989    0.0425 C   0  0  0  0  0  0  0  0  0  0  0  0
    1.1797    1.9700   -1.3104 C   0  0  0  0  0  0  0  0  0  0  0  0
   -0.1973    1.5836   -1.3095 C   0  0  0  0  0  0  0  0  0  0  0  0
   -0.6891    1.6759    0.0459 C   0  0  1  0  0  3  0  0  0  0  0  0
   -1.8851    0.9131    0.5789 C   0  0  1  0  0  0  0  0  0  0  0  0
   -3.1952    1.0766   -0.2027 C   0  0  0  0  0  0  0  0  0  0  0  0
   -4.1846   -0.0189    0.2120 C   0  0  0  0  0  0  0  0  0  0  0  0
   -3.6156   -1.4439   -0.0412 C   0  0  0  0  0  0  0  0  0  0  0  0
   -2.1137   -1.4322   -0.4037 C   0  0  0  0  0  0  0  0  0  0  0  0
   -1.3404   -0.5433    0.5572 C   0  0  0  0  0  3  0  0  0  0  0  0
    0.3403    2.3001    1.9532 H   0  0  0  0  0  0  0  0  0  0  0  0
    2.5324    2.6531    0.3722 H   0  0  0  0  0  0  0  0  0  0  0  0
    1.8325    2.0309   -2.1889 H   0  0  0  0  0  0  0  0  0  0  0  0
   -0.7780    1.2675   -2.1839 H   0  0  0  0  0  0  0  0  0  0  0  0
   -2.0560    1.2269    1.6300 H   0  0  0  0  0  0  0  0  0  0  0  0
   -2.9996    1.0152   -1.2939 H   0  0  0  0  0  0  0  0  0  0  0  0
   -3.6157    2.0879   -0.0228 H   0  0  0  0  0  0  0  0  0  0  0  0
   -5.1489    0.1182   -0.3176 H   0  0  0  0  0  0  0  0  0  0  0  0
   -4.4116    0.1112    1.2919 H   0  0  0  0  0  0  0  0  0  0  0  0
   -4.1732   -1.9481   -0.8582 H   0  0  0  0  0  0  0  0  0  0  0  0
   -3.7649   -2.0720    0.8617 H   0  0  0  0  0  0  0  0  0  0  0  0
   -1.7147   -2.4652   -0.3949 H   0  0  0  0  0  0  0  0  0  0  0  0
   -1.9912   -1.0743   -1.4473 H   0  0  0  0  0  0  0  0  0  0  0  0
   -1.3296   -0.9781    1.5722 H   0  0  0  0  0  0  0  0  0  0  0  0
  1 12  1  0  0  0  0
  2 13  1  0  0  0  0
  2  1  2  0  0  0  0
  3  4  2  0  0  0  0
  3  2  1  0  0  0  0
  5  4  1  6  0  0  0
  5  6  1  0  0  0  0
  5  1  1  0  0  0  0
  6 16  1  1  0  0  0
  7 18  1  0  0  0  0
  7  8  1  0  0  0  0
  7  6  1  0  0  0  0
  8 20  1  0  0  0  0
  9  8  1  0  0  0  0
  9 22  1  0  0  0  0
 10 23  1  0  0  0  0
 10  9  1  0  0  0  0
 10 11  1  0  0  0  0
 11  6  1  0  0  0  0
 11 25  1  0  0  0  0
 14  3  1  0  0  0  0
 15  4  1  0  0  0  0
 17  7  1  0  0  0  0
 19  8  1  0  0  0  0
 21  9  1  0  0  0  0
 24 10  1  0  0  0  0
M  END
