2
 OpenBabel05122313113D

 22 23  0  0  0  0  0  0  0  0999 V2000
   -9.9619    0.0091   -0.0156 N   0  0  0  0  0  0  0  0  0  0  0  0
   -0.1745   -0.1060   -0.0142 C   0  0  0  0  0  3  0  0  0  0  0  0
   -0.9071    0.0460    1.1890 C   0  0  0  0  0  0  0  0  0  0  0  0
   -0.3699    0.1570    2.1448 H   0  0  0  0  0  0  0  0  0  0  0  0
   -0.9138   -0.2560   -1.2123 C   0  0  0  0  0  0  0  0  0  0  0  0
   -0.3822   -0.3765   -2.1698 H   0  0  0  0  0  0  0  0  0  0  0  0
   -2.3069    0.0584    1.1997 C   0  0  0  0  0  0  0  0  0  0  0  0
   -2.8555    0.1791    2.1461 H   0  0  0  0  0  0  0  0  0  0  0  0
   -2.3134   -0.2475   -1.2158 C   0  0  0  0  0  0  0  0  0  0  0  0
   -2.8680   -0.3621   -2.1595 H   0  0  0  0  0  0  0  0  0  0  0  0
   -3.0408   -0.0866   -0.0071 C   0  0  0  0  0  0  0  0  0  0  0  0
   -4.4625   -0.0700   -0.0060 C   0  0  0  0  0  0  0  0  0  0  0  0
   -5.6956   -0.0538   -0.0071 C   0  0  0  0  0  0  0  0  0  0  0  0
   -7.1167   -0.0335   -0.0096 C   0  0  0  0  0  0  0  0  0  0  0  0
   -7.8597    0.1238    1.1884 C   0  0  0  0  0  0  0  0  0  0  0  0
   -7.3389    0.2332    2.1506 H   0  0  0  0  0  0  0  0  0  0  0  0
   -7.8591   -0.1689   -1.2107 C   0  0  0  0  0  0  0  0  0  0  0  0
   -7.3377   -0.2939   -2.1707 H   0  0  0  0  0  0  0  0  0  0  0  0
   -9.2582    0.1371    1.1226 C   0  0  0  0  0  0  0  0  0  0  0  0
   -9.8465    0.2593    2.0503 H   0  0  0  0  0  0  0  0  0  0  0  0
   -9.2576   -0.1403   -1.1508 C   0  0  0  0  0  0  0  0  0  0  0  0
   -9.8454   -0.2448   -2.0810 H   0  0  0  0  0  0  0  0  0  0  0  0
  1 19  1  0  0  0  0
  2  3  1  0  0  0  0
  3  7  2  0  0  0  0
  3  4  1  0  0  0  0
  5  2  2  0  0  0  0
  6  5  1  0  0  0  0
  7  8  1  0  0  0  0
  9  5  1  0  0  0  0
  9 11  2  0  0  0  0
 10  9  1  0  0  0  0
 11 12  1  0  0  0  0
 11  7  1  0  0  0  0
 13 12  3  0  0  0  0
 14 13  1  0  0  0  0
 14 15  1  0  0  0  0
 15 16  1  0  0  0  0
 17 21  1  0  0  0  0
 17 14  2  0  0  0  0
 18 17  1  0  0  0  0
 19 15  2  0  0  0  0
 19 20  1  0  0  0  0
 21  1  2  0  0  0  0
 22 21  1  0  0  0  0
M  END
