2
 OpenBabel05122313113D

 12 14  0  0  1  0  0  0  0  0999 V2000
   -1.1318    1.5311    0.0001 N   0  0  0  0  0  0  0  0  0  0  0  0
   -0.4880   -1.4044    0.0001 C   0  0  0  0  0  0  0  0  0  0  0  0
   -0.3192   -2.7899   -0.0001 C   0  0  0  0  0  0  0  0  0  0  0  0
   -1.4236   -3.4700   -0.0001 C   0  0  0  0  0  0  0  0  0  0  0  0
   -2.6966   -3.0879    0.0000 C   0  0  0  0  0  0  0  0  0  0  0  0
   -2.8640   -1.8024    0.0000 C   0  0  0  0  0  0  0  0  0  0  0  0
   -1.8458   -0.8449    0.0001 C   0  0  0  0  0  0  0  0  0  0  0  0
   -2.1687    0.5852    0.0000 C   0  0  0  0  0  0  0  0  0  0  0  0
   -3.5024    1.0967   -0.0001 C   0  0  0  0  0  0  0  0  0  0  0  0
   -3.4439    2.3968   -0.0001 C   0  0  1  0  0  0  0  0  0  0  0  0
   -2.6865    3.5324    0.0000 C   0  0  0  0  0  0  0  0  0  0  0  0
   -1.6766    2.6789    0.0000 C   0  0  1  0  0  0  0  0  0  0  0  0
  3  2  2  0  0  0  0
  4  3  1  0  0  0  0
  4  5  2  0  0  0  0
  6  5  1  0  0  0  0
  6  7  2  0  0  0  0
  7  2  1  0  0  0  0
  8  7  1  0  0  0  0
  8  1  1  0  0  0  0
  9  8  2  0  0  0  0
 10  9  1  1  0  0  0
 10 11  1  0  0  0  0
 10 12  1  0  0  0  0
 12 11  1  1  0  0  0
 12  1  1  0  0  0  0
M  END
