18
 OpenBabel05122313113D

 31 33  0  0  1  0  0  0  0  0999 V2000
    1.3925   -1.9460   -0.1663 N   0  0  0  0  0  0  0  0  0  0  0  0
    2.6503   -0.2087    1.1405 C   0  0  0  0  0  0  0  0  0  0  0  0
    3.1993   -0.8898    1.8234 H   0  0  0  0  0  0  0  0  0  0  0  0
    1.6620   -0.0267    1.6038 H   0  0  0  0  0  0  0  0  0  0  0  0
    3.3778    1.1318    1.0047 C   0  0  0  0  0  0  0  0  0  0  0  0
    3.5096    1.5855    2.0082 H   0  0  0  0  0  0  0  0  0  0  0  0
    4.4020    0.9761    0.5941 H   0  0  0  0  0  0  0  0  0  0  0  0
    2.5907    2.0692    0.0847 C   0  0  0  0  0  0  0  0  0  0  0  0
    3.0764    3.0649    0.0267 H   0  0  0  0  0  0  0  0  0  0  0  0
    1.5782    2.2375    0.5062 H   0  0  0  0  0  0  0  0  0  0  0  0
    2.4876    1.4727   -1.3217 C   0  0  0  0  0  0  0  0  0  0  0  0
    3.5011    1.4707   -1.7786 H   0  0  0  0  0  0  0  0  0  0  0  0
    1.8622    2.1119   -1.9799 H   0  0  0  0  0  0  0  0  0  0  0  0
   -0.5990    0.4466   -2.0337 C   0  0  0  0  0  0  0  0  0  0  0  0
   -0.4188    1.4066   -2.5390 H   0  0  0  0  0  0  0  0  0  0  0  0
   -1.8921   -0.1454   -2.0750 C   0  0  0  0  0  3  0  0  0  0  0  0
   -2.7167    0.3569   -2.5969 H   0  0  0  0  0  0  0  0  0  0  0  0
   -2.1354   -1.3393   -1.3307 C   0  0  0  0  0  3  0  0  0  0  0  0
   -3.1512   -1.7570   -1.2955 H   0  0  0  0  0  0  0  0  0  0  0  0
   -1.0983   -1.9833   -0.5965 C   0  0  0  0  0  0  0  0  0  0  0  0
   -1.3186   -2.8756    0.0022 H   0  0  0  0  0  0  0  0  0  0  0  0
    1.4202   -2.9862    0.8387 C   0  0  0  0  0  0  0  0  0  0  0  0
    2.4591   -3.3498    0.9601 H   0  0  0  0  0  0  0  0  0  0  0  0
    0.8023   -3.8463    0.5118 H   0  0  0  0  0  0  0  0  0  0  0  0
    1.0469   -2.6418    1.8300 H   0  0  0  0  0  0  0  0  0  0  0  0
    1.9502    0.0331   -1.3577 C   0  0  1  0  0  0  0  0  0  0  0  0
    2.2833   -0.4232   -2.3192 H   0  0  0  0  0  0  0  0  0  0  0  0
    0.2230   -1.4459   -0.6790 C   0  0  0  0  0  0  0  0  0  0  0  0
    2.4499   -0.9081   -0.2190 C   0  0  2  0  0  0  0  0  0  0  0  0
    3.4075   -1.3861   -0.5208 H   0  0  0  0  0  0  0  0  0  0  0  0
    0.4545   -0.2001   -1.3388 C   0  0  0  0  0  0  0  0  0  0  0  0
  1 22  1  0  0  0  0
  2  4  1  0  0  0  0
  2  3  1  0  0  0  0
  5  2  1  0  0  0  0
  5  6  1  0  0  0  0
  7  5  1  0  0  0  0
  8 10  1  0  0  0  0
  8  5  1  0  0  0  0
  9  8  1  0  0  0  0
 11  8  1  0  0  0  0
 12 11  1  0  0  0  0
 13 11  1  0  0  0  0
 14 31  2  0  0  0  0
 15 14  1  0  0  0  0
 16 14  1  0  0  0  0
 16 18  1  0  0  0  0
 17 16  1  0  0  0  0
 18 19  1  0  0  0  0
 18 20  1  0  0  0  0
 20 21  1  0  0  0  0
 22 23  1  0  0  0  0
 22 25  1  0  0  0  0
 24 22  1  0  0  0  0
 26 27  1  6  0  0  0
 26 31  1  0  0  0  0
 26 11  1  0  0  0  0
 26 29  1  0  0  0  0
 28 20  2  0  0  0  0
 28  1  1  0  0  0  0
 29 30  1  6  0  0  0
 29  1  1  0  0  0  0
 29  2  1  0  0  0  0
 31 28  1  0  0  0  0
M  END
