5
 OpenBabel05122313113D

 44 44  0  0  1  0  0  0  0  0999 V2000
    2.6150   -0.0371    0.9603 O   0  0  0  0  0  0  0  0  0  0  0  0
    2.3504   -1.8038   -0.4662 O   0  0  0  0  0  0  0  0  0  0  0  0
   -2.1754   -0.7792    0.7472 O   0  0  0  0  0  0  0  0  0  0  0  0
   -3.5073    0.9038   -0.0143 O   0  0  0  0  0  0  0  0  0  0  0  0
    1.2758    0.2988    1.0383 C   0  0  2  0  0  3  0  0  0  0  0  0
    3.0797   -1.0652    0.1559 C   0  0  0  0  0  0  0  0  0  0  0  0
    4.6101   -1.0952    0.1714 C   0  0  0  0  0  0  0  0  0  0  0  0
    5.0785   -2.2582   -0.7142 C   0  0  0  0  0  0  0  0  0  0  0  0
    4.6885   -3.2268   -0.3453 H   0  0  0  0  0  0  0  0  0  0  0  0
    6.1857   -2.3043   -0.7192 H   0  0  0  0  0  0  0  0  0  0  0  0
    4.7275   -2.1333   -1.7568 H   0  0  0  0  0  0  0  0  0  0  0  0
    5.1340    0.2489   -0.3827 C   0  0  0  0  0  0  0  0  0  0  0  0
    4.7554    0.4385   -1.4067 H   0  0  0  0  0  0  0  0  0  0  0  0
    6.2419    0.2267   -0.4214 H   0  0  0  0  0  0  0  0  0  0  0  0
    4.8240    1.0955    0.2594 H   0  0  0  0  0  0  0  0  0  0  0  0
    5.0946   -1.2913    1.6243 C   0  0  0  0  0  0  0  0  0  0  0  0
    4.7532   -0.4653    2.2772 H   0  0  0  0  0  0  0  0  0  0  0  0
    6.2029   -1.3172    1.6451 H   0  0  0  0  0  0  0  0  0  0  0  0
    4.7240   -2.2472    2.0468 H   0  0  0  0  0  0  0  0  0  0  0  0
    0.1704   -0.5879    0.9026 C   0  0  0  0  0  3  0  0  0  0  0  0
    0.2720   -1.6473    0.6405 H   0  0  0  0  0  0  0  0  0  0  0  0
   -1.1012    0.0802    1.0362 C   0  0  2  0  0  3  0  0  0  0  0  0
   -3.3423   -0.2732    0.2303 C   0  0  0  0  0  0  0  0  0  0  0  0
   -4.3687   -1.3922    0.0190 C   0  0  0  0  0  0  0  0  0  0  0  0
   -4.7052   -2.0082    1.3950 C   0  0  0  0  0  0  0  0  0  0  0  0
   -5.4552   -2.8155    1.2700 H   0  0  0  0  0  0  0  0  0  0  0  0
   -5.1331   -1.2492    2.0813 H   0  0  0  0  0  0  0  0  0  0  0  0
   -3.8038   -2.4403    1.8709 H   0  0  0  0  0  0  0  0  0  0  0  0
   -5.6254   -0.7831   -0.6177 C   0  0  0  0  0  0  0  0  0  0  0  0
   -5.3935   -0.3253   -1.5990 H   0  0  0  0  0  0  0  0  0  0  0  0
   -6.0567    0.0093    0.0242 H   0  0  0  0  0  0  0  0  0  0  0  0
   -6.3906   -1.5703   -0.7695 H   0  0  0  0  0  0  0  0  0  0  0  0
   -3.7635   -2.4701   -0.9056 C   0  0  0  0  0  0  0  0  0  0  0  0
   -3.4759   -2.0439   -1.8869 H   0  0  0  0  0  0  0  0  0  0  0  0
   -4.5094   -3.2717   -1.0810 H   0  0  0  0  0  0  0  0  0  0  0  0
   -2.8610   -2.9249   -0.4542 H   0  0  0  0  0  0  0  0  0  0  0  0
   -1.3456    1.0753    2.1575 C   0  0  0  0  0  0  0  0  0  0  0  0
   -1.5212    0.5085    3.0988 H   0  0  0  0  0  0  0  0  0  0  0  0
   -2.2733    1.6344    1.9346 H   0  0  0  0  0  0  0  0  0  0  0  0
   -0.1391    2.0270    2.2807 C   0  0  0  0  0  0  0  0  0  0  0  0
   -0.4574    3.0763    2.1218 H   0  0  0  0  0  0  0  0  0  0  0  0
    0.2975    1.9884    3.3039 H   0  0  0  0  0  0  0  0  0  0  0  0
    0.9316    1.6782    1.2618 C   0  0  0  0  0  3  0  0  0  0  0  0
    1.7716    2.3863    1.1740 H   0  0  0  0  0  0  0  0  0  0  0  0
  2  6  2  0  0  0  0
  4 23  2  0  0  0  0
  5  1  1  6  0  0  0
  5 43  1  0  0  0  0
  6  7  1  0  0  0  0
  6  1  1  0  0  0  0
  7 16  1  0  0  0  0
  8  9  1  0  0  0  0
  8  7  1  0  0  0  0
 10  8  1  0  0  0  0
 11  8  1  0  0  0  0
 12  7  1  0  0  0  0
 12 15  1  0  0  0  0
 13 12  1  0  0  0  0
 14 12  1  0  0  0  0
 16 18  1  0  0  0  0
 16 19  1  0  0  0  0
 16 17  1  0  0  0  0
 20 22  1  0  0  0  0
 20  5  1  0  0  0  0
 21 20  1  0  0  0  0
 22  3  1  1  0  0  0
 22 37  1  0  0  0  0
 23  3  1  0  0  0  0
 24 23  1  0  0  0  0
 24 25  1  0  0  0  0
 25 28  1  0  0  0  0
 25 27  1  0  0  0  0
 26 25  1  0  0  0  0
 29 24  1  0  0  0  0
 29 31  1  0  0  0  0
 30 29  1  0  0  0  0
 32 29  1  0  0  0  0
 33 36  1  0  0  0  0
 33 24  1  0  0  0  0
 34 33  1  0  0  0  0
 35 33  1  0  0  0  0
 37 40  1  0  0  0  0
 37 38  1  0  0  0  0
 39 37  1  0  0  0  0
 40 42  1  0  0  0  0
 41 40  1  0  0  0  0
 43 40  1  0  0  0  0
 44 43  1  0  0  0  0
M  END
