9
 OpenBabel05122313113D

 15 15  0  0  0  0  0  0  0  0999 V2000
    2.2708   -2.3195    0.2984 O   0  0  0  0  0  0  0  0  0  0  0  0
   -2.1588   -0.8449   -1.2607 C   0  0  0  0  0  0  0  0  0  0  0  0
   -3.2535   -0.2031   -0.7231 C   0  0  0  0  0  0  0  0  0  0  0  0
   -3.2859    0.1699    0.6575 C   0  0  0  0  0  0  0  0  0  0  0  0
   -2.2380   -0.1689    1.4922 C   0  0  0  0  0  0  0  0  0  0  0  0
   -1.0905   -0.8618    0.9863 C   0  0  0  0  0  0  0  0  0  0  0  0
   -1.0196   -1.1556   -0.4321 C   0  0  0  0  0  0  0  0  0  0  0  0
    0.2241   -1.6365   -0.9605 C   0  0  0  0  0  3  0  0  0  0  0  0
    1.3461   -1.6371   -0.0447 C   0  0  0  0  0  3  0  0  0  0  0  0
    0.3328   -1.9038   -2.0241 H   0  0  0  0  0  0  0  0  0  0  0  0
   -0.4825   -1.4366    1.6979 H   0  0  0  0  0  0  0  0  0  0  0  0
   -2.2919    0.0485    2.5696 H   0  0  0  0  0  0  0  0  0  0  0  0
   -4.1674    0.6915    1.0581 H   0  0  0  0  0  0  0  0  0  0  0  0
   -4.1139    0.0371   -1.3660 H   0  0  0  0  0  0  0  0  0  0  0  0
   -2.1235   -1.1093   -2.3280 H   0  0  0  0  0  0  0  0  0  0  0  0
  2  3  2  0  0  0  0
  2  7  1  0  0  0  0
  3  4  1  0  0  0  0
  4 13  1  0  0  0  0
  4  5  2  0  0  0  0
  5 12  1  0  0  0  0
  6  5  1  0  0  0  0
  6 11  1  0  0  0  0
  7  6  2  0  0  0  0
  8  7  1  0  0  0  0
  8  9  1  0  0  0  0
  9  1  2  0  0  0  0
 10  8  1  0  0  0  0
 14  3  1  0  0  0  0
 15  2  1  0  0  0  0
M  END
