19
 OpenBabel05122313113D

 32 33  0  0  1  0  0  0  0  0999 V2000
    3.1502   -0.1701    0.0005 S   0  0  0  0  0  0  0  0  0  0  0  0
    1.4162   -0.4846    0.0020 N   0  0  0  0  0  0  0  0  0  0  0  0
    3.4087    0.4818    1.2935 O   0  0  0  0  0  0  0  0  0  0  0  0
   -1.5492   -1.5054    2.7609 O   0  0  0  0  0  0  0  0  0  0  0  0
   -2.8881   -0.2537    1.4220 O   0  0  0  0  0  0  0  0  0  0  0  0
    0.7377   -1.2323    1.1217 C   0  0  1  0  0  0  0  0  0  0  0  0
   -0.6507   -0.6473    0.7409 C   0  0  2  0  0  3  0  0  0  0  0  0
    0.8257   -2.6826    0.6883 C   0  0  0  0  0  0  0  0  0  0  0  0
   -1.7233   -0.8596    1.7350 C   0  0  0  0  0  0  0  0  0  0  0  0
    3.9619   -1.7789    0.0073 C   0  0  0  0  0  0  0  0  0  0  0  0
   -3.9444   -0.4210    2.3712 C   0  0  0  0  0  0  0  0  0  0  0  0
    1.0918   -0.9471    2.1260 H   0  0  0  0  0  0  0  0  0  0  0  0
    0.7674   -3.5369    1.3748 H   0  0  0  0  0  0  0  0  0  0  0  0
    5.0427   -1.5399    0.0062 H   0  0  0  0  0  0  0  0  0  0  0  0
    3.6760   -2.3337   -0.9030 H   0  0  0  0  0  0  0  0  0  0  0  0
   -4.2018   -1.4926    2.4945 H   0  0  0  0  0  0  0  0  0  0  0  0
   -4.8059    0.1399    1.9676 H   0  0  0  0  0  0  0  0  0  0  0  0
   -3.6524   -0.0201    3.3630 H   0  0  0  0  0  0  0  0  0  0  0  0
   -0.6508   -0.6535   -0.7353 C   0  0  1  0  0  3  0  0  0  0  0  0
    0.7375   -1.2418   -1.1112 C   0  0  2  0  0  0  0  0  0  0  0  0
    3.4085    0.4709   -1.2980 O   0  0  0  0  0  0  0  0  0  0  0  0
    0.8256   -2.6883   -0.6657 C   0  0  0  0  0  0  0  0  0  0  0  0
    3.6761   -2.3259    0.9223 H   0  0  0  0  0  0  0  0  0  0  0  0
   -1.7236   -0.8748   -1.7273 C   0  0  0  0  0  0  0  0  0  0  0  0
    1.0916   -0.9650   -2.1180 H   0  0  0  0  0  0  0  0  0  0  0  0
    0.7671   -3.5484   -1.3448 H   0  0  0  0  0  0  0  0  0  0  0  0
   -1.5499   -1.5312   -2.7465 O   0  0  0  0  0  0  0  0  0  0  0  0
   -2.8877   -0.2645   -1.4208 O   0  0  0  0  0  0  0  0  0  0  0  0
   -3.9442   -0.4408   -2.3682 C   0  0  0  0  0  0  0  0  0  0  0  0
   -4.2028   -1.5134   -2.4798 H   0  0  0  0  0  0  0  0  0  0  0  0
   -4.8050    0.1255   -1.9708 H   0  0  0  0  0  0  0  0  0  0  0  0
   -3.6516   -0.0512   -3.3643 H   0  0  0  0  0  0  0  0  0  0  0  0
  1  2  1  0  0  0  0
  1 10  1  0  0  0  0
  1  3  2  0  0  0  0
  2  6  1  0  0  0  0
  5  9  1  0  0  0  0
  5 11  1  0  0  0  0
  6 12  1  1  0  0  0
  7  6  1  0  0  0  0
  7  9  1  1  0  0  0
  8  6  1  0  0  0  0
  8 13  1  0  0  0  0
  9  4  2  0  0  0  0
 10 23  1  0  0  0  0
 11 16  1  0  0  0  0
 11 18  1  0  0  0  0
 14 10  1  0  0  0  0
 15 10  1  0  0  0  0
 17 11  1  0  0  0  0
 19 24  1  1  0  0  0
 19  7  1  0  0  0  0
 20 25  1  6  0  0  0
 20 19  1  0  0  0  0
 20 22  1  0  0  0  0
 20  2  1  0  0  0  0
 21  1  2  0  0  0  0
 22  8  2  0  0  0  0
 24 28  1  0  0  0  0
 26 22  1  0  0  0  0
 27 24  2  0  0  0  0
 29 31  1  0  0  0  0
 29 28  1  0  0  0  0
 30 29  1  0  0  0  0
 32 29  1  0  0  0  0
M  END
