8
 OpenBabel05122313113D

 36 38  0  0  1  0  0  0  0  0999 V2000
   -1.7361    2.5626   -1.8137 O   0  0  0  0  0  0  0  0  0  0  0  0
   -3.0757    1.3821   -0.4137 O   0  0  0  0  0  0  0  0  0  0  0  0
   -1.7278   -2.9985   -0.9296 O   0  0  0  0  0  0  0  0  0  0  0  0
   -3.1007   -1.4152   -0.0593 O   0  0  0  0  0  0  0  0  0  0  0  0
    1.2447   -0.0874   -0.5316 N   0  0  0  0  0  0  0  0  0  0  0  0
    0.5234    0.9016   -1.4243 C   0  0  2  0  0  0  0  0  0  0  0  0
   -0.8528    0.6268   -0.7691 C   0  0  2  0  0  3  0  0  0  0  0  0
   -0.8555   -0.8260   -0.5549 C   0  0  2  0  0  3  0  0  0  0  0  0
    0.5212   -1.2879   -1.0931 C   0  0  1  0  0  0  0  0  0  0  0  0
    0.6121   -1.0793   -2.5926 C   0  0  0  0  0  0  0  0  0  0  0  0
    0.6113    0.2577   -2.7940 C   0  0  0  0  0  0  0  0  0  0  0  0
    2.6763   -0.0643   -0.4364 C   0  0  0  0  0  0  0  0  0  0  0  0
    3.4170   -1.2593   -0.4161 C   0  0  0  0  0  0  0  0  0  0  0  0
    4.8109   -1.2162   -0.2655 C   0  0  0  0  0  0  0  0  0  0  0  0
    5.4760    0.0113   -0.1364 C   0  0  0  0  0  0  0  0  0  0  0  0
    4.7331    1.2027   -0.1541 C   0  0  0  0  0  0  0  0  0  0  0  0
    3.3408    1.1697   -0.3001 C   0  0  0  0  0  0  0  0  0  0  0  0
   -1.9151    1.6086   -1.0662 C   0  0  0  0  0  0  0  0  0  0  0  0
   -4.1137    2.3336   -0.6575 C   0  0  0  0  0  0  0  0  0  0  0  0
   -1.9194   -1.8496   -0.5499 C   0  0  0  0  0  0  0  0  0  0  0  0
   -4.1393   -2.3954   -0.0016 C   0  0  0  0  0  0  0  0  0  0  0  0
    0.8593    1.9452   -1.3211 H   0  0  0  0  0  0  0  0  0  0  0  0
    0.8382   -2.2580   -0.6798 H   0  0  0  0  0  0  0  0  0  0  0  0
    0.5816   -1.8839   -3.3381 H   0  0  0  0  0  0  0  0  0  0  0  0
    0.5830    0.8076   -3.7431 H   0  0  0  0  0  0  0  0  0  0  0  0
    2.9104   -2.2282   -0.5151 H   0  0  0  0  0  0  0  0  0  0  0  0
    5.3796   -2.1580   -0.2533 H   0  0  0  0  0  0  0  0  0  0  0  0
    6.5693    0.0408   -0.0196 H   0  0  0  0  0  0  0  0  0  0  0  0
    5.2404    2.1733   -0.0486 H   0  0  0  0  0  0  0  0  0  0  0  0
    2.7689    2.1077   -0.2922 H   0  0  0  0  0  0  0  0  0  0  0  0
   -4.3862    2.3587   -1.7323 H   0  0  0  0  0  0  0  0  0  0  0  0
   -4.9746    2.0059   -0.0481 H   0  0  0  0  0  0  0  0  0  0  0  0
   -3.7954    3.3534   -0.3596 H   0  0  0  0  0  0  0  0  0  0  0  0
   -4.3713   -2.7897   -1.0118 H   0  0  0  0  0  0  0  0  0  0  0  0
   -3.8436   -3.2494    0.6413 H   0  0  0  0  0  0  0  0  0  0  0  0
   -5.0189   -1.8805    0.4241 H   0  0  0  0  0  0  0  0  0  0  0  0
  1 18  2  0  0  0  0
  3 20  2  0  0  0  0
  4 21  1  0  0  0  0
  5 12  1  0  0  0  0
  6 22  1  1  0  0  0
  6  7  1  0  0  0  0
  6  5  1  0  0  0  0
  7 18  1  6  0  0  0
  7  8  1  0  0  0  0
  8 20  1  6  0  0  0
  9 23  1  1  0  0  0
  9  8  1  0  0  0  0
  9  5  1  0  0  0  0
 10  9  1  0  0  0  0
 11 10  2  0  0  0  0
 11  6  1  0  0  0  0
 12 13  2  0  0  0  0
 12 17  1  0  0  0  0
 13 14  1  0  0  0  0
 14 27  1  0  0  0  0
 14 15  2  0  0  0  0
 15 28  1  0  0  0  0
 16 15  1  0  0  0  0
 16 29  1  0  0  0  0
 17 30  1  0  0  0  0
 17 16  2  0  0  0  0
 18  2  1  0  0  0  0
 19  2  1  0  0  0  0
 19 33  1  0  0  0  0
 19 32  1  0  0  0  0
 20  4  1  0  0  0  0
 21 36  1  0  0  0  0
 21 35  1  0  0  0  0
 24 10  1  0  0  0  0
 25 11  1  0  0  0  0
 26 13  1  0  0  0  0
 31 19  1  0  0  0  0
 34 21  1  0  0  0  0
M  END
