2
 OpenBabel05122313113D

 11 10  0  0  0  0  0  0  0  0999 V2000
    3.9623    1.8143   -1.4730 O   0  0  0  0  0  0  0  0  0  0  0  0
    1.1482    0.9182   -1.8986 C   0  0  0  0  0  3  0  0  0  0  0  0
    1.6216    1.8435   -0.9196 C   0  0  0  0  0  3  0  0  0  0  0  0
    3.0422    2.2540   -0.7725 C   0  0  0  0  0  0  0  0  0  0  0  0
    3.3101    3.2844    0.3045 C   0  0  0  0  0  0  0  0  0  0  0  0
    1.8717    0.4837   -2.6051 H   0  0  0  0  0  0  0  0  0  0  0  0
    0.1591    1.1219   -2.3394 H   0  0  0  0  0  0  0  0  0  0  0  0
    0.9039    2.5701   -0.5091 H   0  0  0  0  0  0  0  0  0  0  0  0
    4.3937    3.4902    0.3728 H   0  0  0  0  0  0  0  0  0  0  0  0
    2.9026    2.9159    1.2708 H   0  0  0  0  0  0  0  0  0  0  0  0
    2.7657    4.2249    0.0768 H   0  0  0  0  0  0  0  0  0  0  0  0
  1  4  2  0  0  0  0
  2  3  1  0  0  0  0
  3  4  1  0  0  0  0
  3  8  1  0  0  0  0
  4  5  1  0  0  0  0
  5  9  1  0  0  0  0
  5 10  1  0  0  0  0
  6  2  1  0  0  0  0
  7  2  1  0  0  0  0
 11  5  1  0  0  0  0
M  END
