2
 OpenBabel05122313113D

 30 30  0  0  1  0  0  0  0  0999 V2000
   -0.6730    0.5693   -0.7662 C   0  0  1  0  0  3  0  0  0  0  0  0
   -0.1365   -0.4608   -1.6590 C   0  0  0  0  0  3  0  0  0  0  0  0
    0.1162   -1.7398   -1.1154 C   0  0  0  0  0  0  0  0  0  0  0  0
   -0.0995   -1.9193    0.2966 C   0  0  0  0  0  0  0  0  0  0  0  0
   -0.7131   -0.9116    1.0546 C   0  0  0  0  0  3  0  0  0  0  0  0
   -1.5681    0.1464    0.3903 C   0  0  2  0  0  0  0  0  0  0  0  0
    0.0034    1.8010   -0.7839 C   0  0  0  0  0  3  0  0  0  0  0  0
   -0.2735    2.9973    0.0749 C   0  0  0  0  0  0  0  0  0  0  0  0
   -3.0592   -0.2014    0.0613 C   0  0  0  0  0  0  0  0  0  0  0  0
   -3.2040   -1.3821   -0.9118 C   0  0  0  0  0  0  0  0  0  0  0  0
   -3.7663   -0.5470    1.3837 C   0  0  0  0  0  0  0  0  0  0  0  0
   -3.7003    1.0527   -0.5589 C   0  0  0  0  0  0  0  0  0  0  0  0
    0.1702   -0.2141   -2.6869 H   0  0  0  0  0  0  0  0  0  0  0  0
    0.5717   -2.5349   -1.7211 H   0  0  0  0  0  0  0  0  0  0  0  0
    0.3084   -2.8146    0.7886 H   0  0  0  0  0  0  0  0  0  0  0  0
   -0.7290   -1.0154    2.1497 H   0  0  0  0  0  0  0  0  0  0  0  0
   -1.6230    1.0041    1.0897 H   0  0  0  0  0  0  0  0  0  0  0  0
    0.5955    2.0112   -1.6905 H   0  0  0  0  0  0  0  0  0  0  0  0
   -0.7168    2.7445    1.0557 H   0  0  0  0  0  0  0  0  0  0  0  0
    0.6578    3.5665    0.2627 H   0  0  0  0  0  0  0  0  0  0  0  0
   -0.9740    3.6850   -0.4490 H   0  0  0  0  0  0  0  0  0  0  0  0
   -2.7217   -2.2983   -0.5173 H   0  0  0  0  0  0  0  0  0  0  0  0
   -4.2780   -1.6094   -1.0729 H   0  0  0  0  0  0  0  0  0  0  0  0
   -2.7558   -1.1598   -1.9000 H   0  0  0  0  0  0  0  0  0  0  0  0
   -3.6857    0.2841    2.1152 H   0  0  0  0  0  0  0  0  0  0  0  0
   -4.8444   -0.7436    1.2132 H   0  0  0  0  0  0  0  0  0  0  0  0
   -3.3298   -1.4540    1.8496 H   0  0  0  0  0  0  0  0  0  0  0  0
   -4.7691    0.8743   -0.7955 H   0  0  0  0  0  0  0  0  0  0  0  0
   -3.1899    1.3409   -1.5012 H   0  0  0  0  0  0  0  0  0  0  0  0
   -3.6466    1.9184    0.1337 H   0  0  0  0  0  0  0  0  0  0  0  0
  1  7  1  1  0  0  0
  1  6  1  0  0  0  0
  2  3  1  0  0  0  0
  2  1  1  0  0  0  0
  3  4  2  0  0  0  0
  4 15  1  0  0  0  0
  4  5  1  0  0  0  0
  5 16  1  0  0  0  0
  6  5  1  0  0  0  0
  6 17  1  1  0  0  0
  7  8  1  0  0  0  0
  8 20  1  0  0  0  0
  8 19  1  0  0  0  0
  9  6  1  0  0  0  0
  9 11  1  0  0  0  0
 10 22  1  0  0  0  0
 10  9  1  0  0  0  0
 11 27  1  0  0  0  0
 11 25  1  0  0  0  0
 12  9  1  0  0  0  0
 12 30  1  0  0  0  0
 13  2  1  0  0  0  0
 14  3  1  0  0  0  0
 18  7  1  0  0  0  0
 21  8  1  0  0  0  0
 23 10  1  0  0  0  0
 24 10  1  0  0  0  0
 26 11  1  0  0  0  0
 28 12  1  0  0  0  0
 29 12  1  0  0  0  0
M  END
