4
 OpenBabel05122313113D

 33 36  0  0  0  0  0  0  0  0999 V2000
   -0.3178    2.8786   -0.0842 O   0  0  0  0  0  0  0  0  0  0  0  0
    0.7245    0.7575   -0.1865 N   0  0  0  0  0  0  0  0  0  0  0  0
    2.0382    0.3315   -0.1761 N   0  0  0  0  0  0  0  0  0  0  0  0
   -0.1693   -0.2858   -0.0500 C   0  0  0  0  0  2  0  0  0  0  0  0
    0.6930   -1.4329    0.0370 C   0  0  0  0  0  0  0  0  0  0  0  0
    0.3484   -2.4706    0.0969 H   0  0  0  0  0  0  0  0  0  0  0  0
    2.0316   -1.0459   -0.0385 C   0  0  0  0  0  0  0  0  0  0  0  0
    0.6970    2.2067   -0.0890 C   0  0  0  0  0  0  0  0  0  0  0  0
    2.1139    2.5779    0.0071 C   0  0  0  0  0  0  0  0  0  0  0  0
    2.8817    1.4386   -0.0194 C   0  0  0  0  0  0  0  0  0  0  0  0
    4.3686    1.4046    0.1208 C   0  0  0  0  0  0  0  0  0  0  0  0
    4.8345    1.1882   -0.8659 H   0  0  0  0  0  0  0  0  0  0  0  0
    4.6801    0.5716    0.7845 H   0  0  0  0  0  0  0  0  0  0  0  0
    4.8578    2.7653    0.6539 C   0  0  0  0  0  0  0  0  0  0  0  0
    4.6307    2.8315    1.7401 H   0  0  0  0  0  0  0  0  0  0  0  0
    5.9604    2.8187    0.5577 H   0  0  0  0  0  0  0  0  0  0  0  0
    4.1930    3.9428   -0.0766 C   0  0  0  0  0  0  0  0  0  0  0  0
    4.4094    3.8629   -1.1647 H   0  0  0  0  0  0  0  0  0  0  0  0
    4.6348    4.9013    0.2615 H   0  0  0  0  0  0  0  0  0  0  0  0
    2.6699    3.9596    0.1389 C   0  0  0  0  0  0  0  0  0  0  0  0
    2.4211    4.3602    1.1475 H   0  0  0  0  0  0  0  0  0  0  0  0
    2.1660    4.6403   -0.5789 H   0  0  0  0  0  0  0  0  0  0  0  0
    3.2431   -1.8734   -0.0477 C   0  0  0  0  0  0  0  0  0  0  0  0
    3.3610   -2.9374    0.8752 C   0  0  0  0  0  0  0  0  0  0  0  0
    2.5651   -3.0948    1.6182 H   0  0  0  0  0  0  0  0  0  0  0  0
    4.4897   -3.7666    0.8572 C   0  0  0  0  0  0  0  0  0  0  0  0
    4.5748   -4.5863    1.5861 H   0  0  0  0  0  0  0  0  0  0  0  0
    5.5104   -3.5507   -0.0829 C   0  0  0  0  0  0  0  0  0  0  0  0
    6.3962   -4.2033   -0.0952 H   0  0  0  0  0  0  0  0  0  0  0  0
    5.3939   -2.5054   -1.0138 C   0  0  0  0  0  0  0  0  0  0  0  0
    6.1814   -2.3453   -1.7655 H   0  0  0  0  0  0  0  0  0  0  0  0
    4.2680   -1.6728   -1.0005 C   0  0  0  0  0  0  0  0  0  0  0  0
    4.1601   -0.8799   -1.7549 H   0  0  0  0  0  0  0  0  0  0  0  0
  2  3  1  0  0  0  0
  2  8  1  0  0  0  0
  2  4  1  0  0  0  0
  3  7  1  0  0  0  0
  3 10  1  0  0  0  0
  4  5  1  0  0  0  0
  5  6  1  0  0  0  0
  7  5  2  0  0  0  0
  8  1  2  0  0  0  0
  8  9  1  0  0  0  0
  9 20  1  0  0  0  0
 10  9  2  0  0  0  0
 10 11  1  0  0  0  0
 11 14  1  0  0  0  0
 11 13  1  0  0  0  0
 12 11  1  0  0  0  0
 14 15  1  0  0  0  0
 16 14  1  0  0  0  0
 17 20  1  0  0  0  0
 17 19  1  0  0  0  0
 17 14  1  0  0  0  0
 18 17  1  0  0  0  0
 20 21  1  0  0  0  0
 22 20  1  0  0  0  0
 23  7  1  0  0  0  0
 23 24  1  0  0  0  0
 24 25  1  0  0  0  0
 26 24  2  0  0  0  0
 26 27  1  0  0  0  0
 28 26  1  0  0  0  0
 29 28  1  0  0  0  0
 30 32  1  0  0  0  0
 30 28  2  0  0  0  0
 31 30  1  0  0  0  0
 32 23  2  0  0  0  0
 33 32  1  0  0  0  0
M  END
