4
 OpenBabel05122313113D

 30 33  0  0  0  0  0  0  0  0999 V2000
   -2.8858    0.8635    0.0361 O   0  0  0  0  0  0  0  0  0  0  0  0
   -0.5366    1.3389    0.0400 N   0  0  0  0  0  0  0  0  0  0  0  0
    0.3136    2.4059    0.0516 N   0  0  0  0  0  0  0  0  0  0  0  0
   -0.1308    0.0169    0.0136 C   0  0  0  0  0  2  0  0  0  0  0  0
   -1.2580   -0.8713    0.0013 C   0  0  0  0  0  0  0  0  0  0  0  0
   -1.0484   -1.9465   -0.0192 H   0  0  0  0  0  0  0  0  0  0  0  0
   -2.5812   -0.4704    0.0130 C   0  0  0  0  0  0  0  0  0  0  0  0
   -1.8834    1.7625    0.0467 C   0  0  0  0  0  0  0  0  0  0  0  0
   -1.8878    3.1385    0.0572 C   0  0  0  0  0  0  0  0  0  0  0  0
   -0.4991    3.4598    0.0616 C   0  0  0  0  0  0  0  0  0  0  0  0
   -0.2847    4.9433    0.0979 C   0  0  0  0  0  0  0  0  0  0  0  0
    0.5212    5.2875   -0.5798 H   0  0  0  0  0  0  0  0  0  0  0  0
    0.0047    5.2562    1.1256 H   0  0  0  0  0  0  0  0  0  0  0  0
   -1.6945    5.4799   -0.2944 C   0  0  0  0  0  0  0  0  0  0  0  0
   -1.9255    6.4556    0.1747 H   0  0  0  0  0  0  0  0  0  0  0  0
   -1.7250    5.6311   -1.3929 H   0  0  0  0  0  0  0  0  0  0  0  0
   -2.7352    4.3752    0.0859 C   0  0  0  0  0  0  0  0  0  0  0  0
   -3.1512    4.5435    1.1040 H   0  0  0  0  0  0  0  0  0  0  0  0
   -3.5970    4.3508   -0.6107 H   0  0  0  0  0  0  0  0  0  0  0  0
   -3.7686   -1.3306    0.0032 C   0  0  0  0  0  0  0  0  0  0  0  0
   -3.6456   -2.7414   -0.0053 C   0  0  0  0  0  0  0  0  0  0  0  0
   -2.6526   -3.2119   -0.0028 H   0  0  0  0  0  0  0  0  0  0  0  0
   -4.7839   -3.5528   -0.0154 C   0  0  0  0  0  0  0  0  0  0  0  0
   -4.6695   -4.6469   -0.0216 H   0  0  0  0  0  0  0  0  0  0  0  0
   -6.0659   -2.9770   -0.0169 C   0  0  0  0  0  0  0  0  0  0  0  0
   -6.9595   -3.6189   -0.0248 H   0  0  0  0  0  0  0  0  0  0  0  0
   -6.2001   -1.5795   -0.0080 C   0  0  0  0  0  0  0  0  0  0  0  0
   -7.2004   -1.1212   -0.0091 H   0  0  0  0  0  0  0  0  0  0  0  0
   -5.0650   -0.7611    0.0020 C   0  0  0  0  0  0  0  0  0  0  0  0
   -5.1728    0.3317    0.0087 H   0  0  0  0  0  0  0  0  0  0  0  0
  1  8  1  0  0  0  0
  2  8  1  0  0  0  0
  2  3  1  0  0  0  0
  3 10  2  0  0  0  0
  4  2  1  0  0  0  0
  5  7  2  0  0  0  0
  5  4  1  0  0  0  0
  6  5  1  0  0  0  0
  7  1  1  0  0  0  0
  8  9  2  0  0  0  0
  9 10  1  0  0  0  0
  9 17  1  0  0  0  0
 10 11  1  0  0  0  0
 11 13  1  0  0  0  0
 12 11  1  0  0  0  0
 14 17  1  0  0  0  0
 14 11  1  0  0  0  0
 14 15  1  0  0  0  0
 16 14  1  0  0  0  0
 17 18  1  0  0  0  0
 19 17  1  0  0  0  0
 20  7  1  0  0  0  0
 21 22  1  0  0  0  0
 21 20  2  0  0  0  0
 23 21  1  0  0  0  0
 24 23  1  0  0  0  0
 25 23  2  0  0  0  0
 25 27  1  0  0  0  0
 26 25  1  0  0  0  0
 27 29  2  0  0  0  0
 28 27  1  0  0  0  0
 29 20  1  0  0  0  0
 29 30  1  0  0  0  0
M  END
