19
 OpenBabel05122313113D

 46 48  0  0  1  0  0  0  0  0999 V2000
    8.6927   -0.3745   -0.0699 C   0  0  0  0  0  0  0  0  0  0  0  0
    9.6246   -0.9132   -0.3000 H   0  0  0  0  0  0  0  0  0  0  0  0
    3.9090   -0.3470    0.2521 O   0  0  0  0  0  0  0  0  0  0  0  0
    5.0123   -2.2312   -0.6063 O   0  0  0  0  0  0  0  0  0  0  0  0
   -1.0907    2.9019    0.6387 O   0  0  0  0  0  0  0  0  0  0  0  0
   -1.0267    4.5110   -0.9609 O   0  0  0  0  0  0  0  0  0  0  0  0
    0.2035   -0.0090    0.2394 C   0  0  2  0  0  0  0  0  0  0  0  0
    0.1173   -0.1056   -0.8513 H   0  0  0  0  0  0  0  0  0  0  0  0
    6.2629   -0.2481   -0.1506 C   0  0  0  0  0  0  0  0  0  0  0  0
    3.8021   -2.8029   -1.0940 C   0  0  0  0  0  0  0  0  0  0  0  0
    3.9319   -3.9020   -1.0597 H   0  0  0  0  0  0  0  0  0  0  0  0
    3.6464   -2.5079   -2.1626 H   0  0  0  0  0  0  0  0  0  0  0  0
    1.1271    1.1506    0.7089 C   0  0  2  0  0  0  0  0  0  0  0  0
    0.7432    1.5926    1.6412 H   0  0  0  0  0  0  0  0  0  0  0  0
    6.3112    0.9837    0.5266 C   0  0  0  0  0  0  0  0  0  0  0  0
    5.3705    1.4975    0.7697 H   0  0  0  0  0  0  0  0  0  0  0  0
    4.9384   -0.8247   -0.5975 C   0  0  2  0  0  0  0  0  0  0  0  0
    4.6999   -0.4811   -1.6461 H   0  0  0  0  0  0  0  0  0  0  0  0
   -1.0454   -0.2546    0.9836 C   0  0  0  0  0  2  0  0  0  0  0  0
    0.8913    3.2032   -0.7142 C   0  0  0  0  0  0  0  0  0  0  0  0
    1.3069    3.8892   -1.4668 H   0  0  0  0  0  0  0  0  0  0  0  0
    7.4593   -0.9272   -0.4444 C   0  0  0  0  0  0  0  0  0  0  0  0
    7.4096   -1.8977   -0.9579 H   0  0  0  0  0  0  0  0  0  0  0  0
    2.6211   -0.8104   -0.1647 C   0  0  1  0  0  0  0  0  0  0  0  0
    2.4121   -0.4038   -1.1893 H   0  0  0  0  0  0  0  0  0  0  0  0
    1.6012    2.1235   -0.3013 C   0  0  0  0  0  0  0  0  0  0  0  0
    2.6010    1.9544   -0.7369 H   0  0  0  0  0  0  0  0  0  0  0  0
    2.6149   -2.3419   -0.2478 C   0  0  0  0  0  0  0  0  0  0  0  0
    2.7106   -2.7546    0.7781 H   0  0  0  0  0  0  0  0  0  0  0  0
    1.6567   -2.6991   -0.6787 H   0  0  0  0  0  0  0  0  0  0  0  0
    7.5465    1.5341    0.8995 C   0  0  0  0  0  0  0  0  0  0  0  0
    7.5765    2.4967    1.4326 H   0  0  0  0  0  0  0  0  0  0  0  0
   -0.4847    3.4918   -0.2481 C   0  0  0  0  0  0  0  0  0  0  0  0
   -1.8300   -0.2939    3.2587 C   0  0  0  0  0  0  0  0  0  0  0  0
   -1.3694   -0.0274    4.2270 H   0  0  0  0  0  0  0  0  0  0  0  0
   -2.1964   -1.3377    3.2870 H   0  0  0  0  0  0  0  0  0  0  0  0
   -2.6684    0.3902    3.0304 H   0  0  0  0  0  0  0  0  0  0  0  0
   -0.7939   -0.1591    2.2808 O   0  0  0  0  0  0  0  0  0  0  0  0
   -2.3887    4.8182   -0.6441 C   0  0  0  0  0  0  0  0  0  0  0  0
   -2.6524    5.7037   -1.2488 H   0  0  0  0  0  0  0  0  0  0  0  0
   -2.5077    5.0313    0.4371 H   0  0  0  0  0  0  0  0  0  0  0  0
   -3.0501    3.9663   -0.9033 H   0  0  0  0  0  0  0  0  0  0  0  0
    1.6030   -0.2587    0.8011 C   0  0  2  0  0  0  0  0  0  0  0  0
    1.6339   -0.6883    1.8154 H   0  0  0  0  0  0  0  0  0  0  0  0
    8.7400    0.8582    0.6006 C   0  0  0  0  0  0  0  0  0  0  0  0
    9.7087    1.2909    0.8940 H   0  0  0  0  0  0  0  0  0  0  0  0
  1 45  1  0  0  0  0
  2  1  1  0  0  0  0
  4 17  1  0  0  0  0
  6 39  1  0  0  0  0
  6 33  1  0  0  0  0
  7  8  1  6  0  0  0
  7 13  1  0  0  0  0
  7 43  1  0  0  0  0
  7 19  1  0  0  0  0
  9 15  2  0  0  0  0
 10 11  1  0  0  0  0
 10  4  1  0  0  0  0
 10 28  1  0  0  0  0
 12 10  1  0  0  0  0
 13 43  1  0  0  0  0
 13 14  1  1  0  0  0
 15 16  1  0  0  0  0
 15 31  1  0  0  0  0
 17 18  1  6  0  0  0
 17  9  1  0  0  0  0
 17  3  1  0  0  0  0
 19 38  1  0  0  0  0
 20 26  2  0  0  0  0
 20 33  1  0  0  0  0
 21 20  1  0  0  0  0
 22  9  1  0  0  0  0
 22  1  2  0  0  0  0
 23 22  1  0  0  0  0
 24 25  1  6  0  0  0
 24  3  1  0  0  0  0
 24 43  1  0  0  0  0
 26 13  1  0  0  0  0
 27 26  1  0  0  0  0
 28 24  1  0  0  0  0
 28 29  1  0  0  0  0
 30 28  1  0  0  0  0
 31 32  1  0  0  0  0
 33  5  2  0  0  0  0
 34 36  1  0  0  0  0
 34 35  1  0  0  0  0
 37 34  1  0  0  0  0
 38 34  1  0  0  0  0
 39 41  1  0  0  0  0
 40 39  1  0  0  0  0
 42 39  1  0  0  0  0
 43 44  1  1  0  0  0
 45 46  1  0  0  0  0
 45 31  2  0  0  0  0
M  END
