1
 OpenBabel05122313113D

 24 25  0  0  0  0  0  0  0  0999 V2000
    0.2488   -0.0820    0.0740 C   0  0  0  0  0  3  0  0  0  0  0  0
   -0.4238   -0.5555    1.2073 C   0  0  0  0  0  0  0  0  0  0  0  0
    0.2790   -1.0268    2.2699 F   0  0  0  0  0  0  0  0  0  0  0  0
   -1.8207   -0.5911    1.2919 C   0  0  0  0  0  0  0  0  0  0  0  0
   -2.3886   -1.0766    2.4133 F   0  0  0  0  0  0  0  0  0  0  0  0
   -2.6528   -0.1332    0.2361 C   0  0  0  0  0  0  0  0  0  0  0  0
   -1.9675    0.3586   -0.9048 C   0  0  0  0  0  0  0  0  0  0  0  0
   -2.6566    0.8315   -1.9620 F   0  0  0  0  0  0  0  0  0  0  0  0
   -0.5694    0.3778   -0.9683 C   0  0  0  0  0  0  0  0  0  0  0  0
   -0.0062    0.8808   -2.0961 F   0  0  0  0  0  0  0  0  0  0  0  0
   -4.0968   -0.1979    0.4022 C   0  0  0  0  0  0  0  0  0  0  0  0
   -4.4036   -0.6077    1.3771 H   0  0  0  0  0  0  0  0  0  0  0  0
   -5.0700    0.1742   -0.4780 C   0  0  0  0  0  0  0  0  0  0  0  0
   -4.7864    0.5833   -1.4577 H   0  0  0  0  0  0  0  0  0  0  0  0
   -6.5091    0.0760   -0.2342 C   0  0  0  0  0  0  0  0  0  0  0  0
   -7.4157    0.4933   -1.2374 C   0  0  0  0  0  0  0  0  0  0  0  0
   -7.0354    0.8882   -2.1926 H   0  0  0  0  0  0  0  0  0  0  0  0
   -8.7958    0.4018   -1.0107 C   0  0  0  0  0  0  0  0  0  0  0  0
   -9.5034    0.7278   -1.7948 H   0  0  0  0  0  0  0  0  0  0  0  0
   -9.3384   -0.0675    0.1243 N   0  0  0  0  0  0  0  0  0  0  0  0
   -8.4805   -0.4657    1.0819 C   0  0  0  0  0  0  0  0  0  0  0  0
   -8.9342   -0.8506    2.0133 H   0  0  0  0  0  0  0  0  0  0  0  0
   -7.0875   -0.4178    0.9606 C   0  0  0  0  0  0  0  0  0  0  0  0
   -6.4593   -0.7639    1.7947 H   0  0  0  0  0  0  0  0  0  0  0  0
  1  2  1  0  0  0  0
  2  4  2  0  0  0  0
  2  3  1  0  0  0  0
  4  5  1  0  0  0  0
  6 11  1  0  0  0  0
  6  4  1  0  0  0  0
  7  6  2  0  0  0  0
  8  7  1  0  0  0  0
  9  7  1  0  0  0  0
  9  1  2  0  0  0  0
 10  9  1  0  0  0  0
 11 12  1  0  0  0  0
 13 15  1  0  0  0  0
 13 11  2  0  0  0  0
 14 13  1  0  0  0  0
 15 23  1  0  0  0  0
 16 18  1  0  0  0  0
 16 15  2  0  0  0  0
 17 16  1  0  0  0  0
 18 20  2  0  0  0  0
 19 18  1  0  0  0  0
 20 21  1  0  0  0  0
 21 22  1  0  0  0  0
 23 21  2  0  0  0  0
 23 24  1  0  0  0  0
M  END
