7
 OpenBabel05122313113D

 28 29  0  0  0  0  0  0  0  0999 V2000
    2.9929    3.2245   -2.1279 O   0  0  0  0  0  0  0  0  0  0  0  0
    1.7079   -1.2410    0.7842 N   0  0  0  0  0  0  0  0  0  0  0  0
    1.8913    0.3063   -0.7601 N   0  0  0  0  0  0  0  0  0  0  0  0
    1.6761    3.2352   -0.2515 N   0  0  0  0  0  0  0  0  0  0  0  0
    2.0659    4.1294    0.0492 H   0  0  0  0  0  0  0  0  0  0  0  0
    0.9665    2.7729    0.3414 H   0  0  0  0  0  0  0  0  0  0  0  0
    0.9932   -0.3831    0.0020 C   0  0  0  0  0  2  0  0  0  0  0  0
    1.1354   -1.5584    3.1824 C   0  0  0  0  0  0  0  0  0  0  0  0
    2.1699   -1.3563    3.5258 H   0  0  0  0  0  0  0  0  0  0  0  0
    0.6702   -2.2707    3.8923 H   0  0  0  0  0  0  0  0  0  0  0  0
    0.5656   -0.6079    3.2098 H   0  0  0  0  0  0  0  0  0  0  0  0
    1.1178   -2.1423    1.7725 C   0  0  0  0  0  0  0  0  0  0  0  0
    1.6711   -3.1023    1.7157 H   0  0  0  0  0  0  0  0  0  0  0  0
    0.0830   -2.3391    1.4279 H   0  0  0  0  0  0  0  0  0  0  0  0
    3.0748   -1.0938    0.5392 C   0  0  0  0  0  0  0  0  0  0  0  0
    4.2062   -1.7263    1.0728 C   0  0  0  0  0  0  0  0  0  0  0  0
    4.1229   -2.5003    1.8483 H   0  0  0  0  0  0  0  0  0  0  0  0
    5.4543   -1.3228    0.5730 C   0  0  0  0  0  0  0  0  0  0  0  0
    6.3662   -1.7947    0.9675 H   0  0  0  0  0  0  0  0  0  0  0  0
    5.5679   -0.3227   -0.4189 C   0  0  0  0  0  0  0  0  0  0  0  0
    6.5664   -0.0316   -0.7769 H   0  0  0  0  0  0  0  0  0  0  0  0
    4.4382    0.3138   -0.9554 C   0  0  0  0  0  0  0  0  0  0  0  0
    4.5144    1.1080   -1.7118 H   0  0  0  0  0  0  0  0  0  0  0  0
    3.1939   -0.0959   -0.4574 C   0  0  0  0  0  0  0  0  0  0  0  0
    1.5553    1.3143   -1.7526 C   0  0  0  0  0  0  0  0  0  0  0  0
    0.4483    1.3480   -1.8109 H   0  0  0  0  0  0  0  0  0  0  0  0
    1.9626    1.0211   -2.7387 H   0  0  0  0  0  0  0  0  0  0  0  0
    2.1501    2.6977   -1.4032 C   0  0  0  0  0  0  0  0  0  0  0  0
  1 28  2  0  0  0  0
  2 12  1  0  0  0  0
  3 24  1  0  0  0  0
  3  7  1  0  0  0  0
  4  5  1  0  0  0  0
  4  6  1  0  0  0  0
  7  2  1  0  0  0  0
  8 11  1  0  0  0  0
  8  9  1  0  0  0  0
  8 10  1  0  0  0  0
 12  8  1  0  0  0  0
 13 12  1  0  0  0  0
 14 12  1  0  0  0  0
 15  2  1  0  0  0  0
 15 16  1  0  0  0  0
 16 17  1  0  0  0  0
 18 19  1  0  0  0  0
 18 16  2  0  0  0  0
 20 18  1  0  0  0  0
 21 20  1  0  0  0  0
 22 24  1  0  0  0  0
 22 20  2  0  0  0  0
 23 22  1  0  0  0  0
 24 15  2  0  0  0  0
 25 28  1  0  0  0  0
 25  3  1  0  0  0  0
 26 25  1  0  0  0  0
 27 25  1  0  0  0  0
 28  4  1  0  0  0  0
M  END
