2
 OpenBabel05122313113D

 37 37  0  0  1  0  0  0  0  0999 V2000
   -1.3259    0.8255   -1.4322 C   0  0  1  0  0  3  0  0  0  0  0  0
   -0.6847   -0.4114   -1.7810 C   0  0  0  0  0  3  0  0  0  0  0  0
    0.5643   -1.0158   -1.4273 C   0  0  2  0  0  3  0  0  0  0  0  0
    1.9279   -0.3278   -1.4739 C   0  0  0  0  0  0  0  0  0  0  0  0
    2.5338   -0.0110   -0.0904 C   0  0  0  0  0  0  0  0  0  0  0  0
    1.4755    0.6018    0.8335 C   0  0  0  0  0  3  0  0  0  0  0  0
    0.6789    1.7163    0.5937 C   0  0  2  0  0  3  0  0  0  0  0  0
    0.5942    2.4272   -0.7452 C   0  0  0  0  0  0  0  0  0  0  0  0
   -0.7734    2.2446   -1.3883 C   0  0  0  0  0  0  0  0  0  0  0  0
   -2.8123    0.8702   -1.7638 C   0  0  0  0  0  0  0  0  0  0  0  0
    0.6499   -2.5073   -1.7199 C   0  0  0  0  0  0  0  0  0  0  0  0
    3.0794   -1.3037    0.5463 C   0  0  0  0  0  0  0  0  0  0  0  0
    3.7109    0.9841   -0.2175 C   0  0  0  0  0  0  0  0  0  0  0  0
    0.2065    2.5508    1.7657 C   0  0  0  0  0  0  0  0  0  0  0  0
   -1.4086   -1.1459   -2.1800 H   0  0  0  0  0  0  0  0  0  0  0  0
    1.6622    0.3946    1.9022 H   0  0  0  0  0  0  0  0  0  0  0  0
   -3.3727    1.4551   -1.0065 H   0  0  0  0  0  0  0  0  0  0  0  0
   -2.9791    1.3696   -2.7448 H   0  0  0  0  0  0  0  0  0  0  0  0
   -3.2648   -0.1387   -1.8141 H   0  0  0  0  0  0  0  0  0  0  0  0
    1.0371   -2.6830   -2.7496 H   0  0  0  0  0  0  0  0  0  0  0  0
    1.3518   -3.0142   -1.0293 H   0  0  0  0  0  0  0  0  0  0  0  0
   -0.3305   -3.0138   -1.6317 H   0  0  0  0  0  0  0  0  0  0  0  0
    2.6362   -0.9916   -2.0159 H   0  0  0  0  0  0  0  0  0  0  0  0
    1.8686    0.5836   -2.0958 H   0  0  0  0  0  0  0  0  0  0  0  0
    2.2959   -2.0746    0.6584 H   0  0  0  0  0  0  0  0  0  0  0  0
    3.8930   -1.7243   -0.0786 H   0  0  0  0  0  0  0  0  0  0  0  0
    3.4939   -1.1034    1.5554 H   0  0  0  0  0  0  0  0  0  0  0  0
    4.1504    1.2038    0.7766 H   0  0  0  0  0  0  0  0  0  0  0  0
    4.5134    0.5536   -0.8515 H   0  0  0  0  0  0  0  0  0  0  0  0
    3.3974    1.9456   -0.6699 H   0  0  0  0  0  0  0  0  0  0  0  0
    0.1513    1.9682    2.7042 H   0  0  0  0  0  0  0  0  0  0  0  0
    0.9342    3.3791    1.9172 H   0  0  0  0  0  0  0  0  0  0  0  0
   -0.7821    3.0180    1.5901 H   0  0  0  0  0  0  0  0  0  0  0  0
    1.3917    2.0984   -1.4294 H   0  0  0  0  0  0  0  0  0  0  0  0
    0.7730    3.5105   -0.5737 H   0  0  0  0  0  0  0  0  0  0  0  0
   -1.5101    2.8490   -0.8169 H   0  0  0  0  0  0  0  0  0  0  0  0
   -0.7879    2.6731   -2.4189 H   0  0  0  0  0  0  0  0  0  0  0  0
  1 10  1  6  0  0  0
  1  9  1  0  0  0  0
  2  1  1  0  0  0  0
  2  3  1  0  0  0  0
  3 11  1  6  0  0  0
  4  3  1  0  0  0  0
  4  5  1  0  0  0  0
  5 12  1  0  0  0  0
  5  6  1  0  0  0  0
  6 16  1  0  0  0  0
  7  6  1  0  0  0  0
  7 14  1  1  0  0  0
  8 35  1  0  0  0  0
  8  7  1  0  0  0  0
  9 36  1  0  0  0  0
  9  8  1  0  0  0  0
 10 17  1  0  0  0  0
 11 22  1  0  0  0  0
 11 21  1  0  0  0  0
 12 25  1  0  0  0  0
 12 27  1  0  0  0  0
 13  5  1  0  0  0  0
 13 28  1  0  0  0  0
 14 32  1  0  0  0  0
 14 31  1  0  0  0  0
 15  2  1  0  0  0  0
 18 10  1  0  0  0  0
 19 10  1  0  0  0  0
 20 11  1  0  0  0  0
 23  4  1  0  0  0  0
 24  4  1  0  0  0  0
 26 12  1  0  0  0  0
 29 13  1  0  0  0  0
 30 13  1  0  0  0  0
 33 14  1  0  0  0  0
 34  8  1  0  0  0  0
 37  9  1  0  0  0  0
M  END
