13
 OpenBabel05122313113D

 55 58  0  0  1  0  0  0  0  0999 V2000
   -0.2287   -1.2905    0.4780 O   0  0  0  0  0  0  0  0  0  0  0  0
   -2.3310    2.2464    0.0860 O   0  0  0  0  0  0  0  0  0  0  0  0
   -0.6017    3.6207    0.6038 O   0  0  0  0  0  0  0  0  0  0  0  0
   -6.3631   -2.5037   -0.1123 O   0  0  0  0  0  0  0  0  0  0  0  0
   -6.3913   -0.3192   -0.0130 O   0  0  0  0  0  0  0  0  0  0  0  0
    1.7926   -2.3403    1.0164 N   0  0  0  0  0  0  0  0  0  0  0  0
   -5.8106   -1.4058   -0.0117 N   0  0  0  0  0  0  0  0  0  0  0  0
    0.6480   -2.4149    0.1245 C   0  0  2  0  0  0  0  0  0  0  0  0
    1.2748   -2.1324   -1.3098 C   0  0  0  0  0  0  0  0  0  0  0  0
    2.5147   -1.3438   -0.9319 C   0  0  0  0  0  0  0  0  0  0  0  0
    3.4361   -0.6229   -1.7382 C   0  0  0  0  0  0  0  0  0  0  0  0
    4.6528   -0.1572   -1.1709 C   0  0  0  0  0  3  0  0  0  0  0  0
    4.8938   -0.3437    0.2254 C   0  0  0  0  0  3  0  0  0  0  0  0
    3.9634   -1.0330    1.0545 C   0  0  0  0  0  0  0  0  0  0  0  0
    2.7939   -1.5742    0.4425 C   0  0  0  0  0  0  0  0  0  0  0  0
    1.6136   -2.4464    2.4527 C   0  0  0  0  0  0  0  0  0  0  0  0
    1.7474   -3.4546   -1.9540 C   0  0  0  0  0  0  0  0  0  0  0  0
    0.3029   -1.4108   -2.2452 C   0  0  0  0  0  0  0  0  0  0  0  0
   -0.0829   -3.7250    0.2506 C   0  0  0  0  0  0  0  0  0  0  0  0
   -1.4332   -3.8016    0.2620 C   0  0  0  0  0  0  0  0  0  0  0  0
   -2.2504   -2.5992    0.2259 C   0  0  0  0  0  0  0  0  0  0  0  0
   -3.6502   -2.6100    0.1162 C   0  0  0  0  0  0  0  0  0  0  0  0
   -4.3402   -1.3941    0.1199 C   0  0  0  0  0  0  0  0  0  0  0  0
   -3.6765   -0.1639    0.2424 C   0  0  0  0  0  0  0  0  0  0  0  0
   -2.2822   -0.1302    0.3632 C   0  0  0  0  0  0  0  0  0  0  0  0
   -1.5745   -1.3562    0.3457 C   0  0  0  0  0  0  0  0  0  0  0  0
   -1.5093    1.1509    0.4917 C   0  0  0  0  0  0  0  0  0  0  0  0
   -1.7328    3.4690    0.1748 C   0  0  0  0  0  0  0  0  0  0  0  0
   -2.6013    4.5895   -0.3053 C   0  0  0  0  0  0  0  0  0  0  0  0
   -3.8240    4.3567   -0.8312 C   0  0  0  0  0  0  0  0  0  0  0  0
   -1.9871    5.9535   -0.1616 C   0  0  0  0  0  0  0  0  0  0  0  0
    3.2078   -0.4207   -2.7945 H   0  0  0  0  0  0  0  0  0  0  0  0
    5.3628    0.4185   -1.7787 H   0  0  0  0  0  0  0  0  0  0  0  0
    5.7995    0.0813    0.6798 H   0  0  0  0  0  0  0  0  0  0  0  0
    4.1426   -1.1264    2.1326 H   0  0  0  0  0  0  0  0  0  0  0  0
    0.8160   -3.1858    2.6578 H   0  0  0  0  0  0  0  0  0  0  0  0
    1.3258   -1.4774    2.9141 H   0  0  0  0  0  0  0  0  0  0  0  0
    2.5467   -2.8117    2.9252 H   0  0  0  0  0  0  0  0  0  0  0  0
    2.4275   -4.0154   -1.2829 H   0  0  0  0  0  0  0  0  0  0  0  0
    2.2998   -3.2330   -2.8881 H   0  0  0  0  0  0  0  0  0  0  0  0
    0.8854   -4.1026   -2.2090 H   0  0  0  0  0  0  0  0  0  0  0  0
    0.0226   -0.4146   -1.8608 H   0  0  0  0  0  0  0  0  0  0  0  0
   -0.6176   -2.0100   -2.3945 H   0  0  0  0  0  0  0  0  0  0  0  0
    0.7714   -1.2711   -3.2397 H   0  0  0  0  0  0  0  0  0  0  0  0
    0.5442   -4.6258    0.2971 H   0  0  0  0  0  0  0  0  0  0  0  0
   -1.9386   -4.7784    0.3149 H   0  0  0  0  0  0  0  0  0  0  0  0
   -4.2132   -3.5488    0.0267 H   0  0  0  0  0  0  0  0  0  0  0  0
   -4.2582    0.7659    0.2295 H   0  0  0  0  0  0  0  0  0  0  0  0
   -1.1479    1.3056    1.5316 H   0  0  0  0  0  0  0  0  0  0  0  0
   -0.5896    1.1136   -0.1276 H   0  0  0  0  0  0  0  0  0  0  0  0
   -4.2214    3.3362   -0.9242 H   0  0  0  0  0  0  0  0  0  0  0  0
   -4.4523    5.1882   -1.1874 H   0  0  0  0  0  0  0  0  0  0  0  0
   -1.7411    6.1643    0.8994 H   0  0  0  0  0  0  0  0  0  0  0  0
   -2.6648    6.7420   -0.5387 H   0  0  0  0  0  0  0  0  0  0  0  0
   -1.0248    6.0067   -0.7106 H   0  0  0  0  0  0  0  0  0  0  0  0
  2 28  1  0  0  0  0
  2 27  1  0  0  0  0
  4  7  2  0  0  0  0
  5  7  2  0  0  0  0
  6 16  1  0  0  0  0
  7 23  1  0  0  0  0
  8 19  1  1  0  0  0
  8  1  1  0  0  0  0
  8  6  1  0  0  0  0
  9 10  1  0  0  0  0
  9  8  1  0  0  0  0
 10 15  1  0  0  0  0
 11 12  1  0  0  0  0
 11 10  2  0  0  0  0
 12 13  1  0  0  0  0
 13 34  1  0  0  0  0
 13 14  1  0  0  0  0
 14 35  1  0  0  0  0
 15  6  1  0  0  0  0
 15 14  2  0  0  0  0
 16 36  1  0  0  0  0
 16 37  1  0  0  0  0
 16 38  1  0  0  0  0
 17  9  1  0  0  0  0
 17 39  1  0  0  0  0
 18 42  1  0  0  0  0
 18  9  1  0  0  0  0
 19 20  2  0  0  0  0
 19 45  1  0  0  0  0
 20 46  1  0  0  0  0
 21 20  1  0  0  0  0
 21 26  1  0  0  0  0
 22 23  1  0  0  0  0
 22 21  2  0  0  0  0
 23 24  2  0  0  0  0
 24 25  1  0  0  0  0
 25 27  1  0  0  0  0
 26 25  2  0  0  0  0
 26  1  1  0  0  0  0
 27 49  1  0  0  0  0
 28  3  2  0  0  0  0
 29 31  1  0  0  0  0
 29 28  1  0  0  0  0
 30 29  2  0  0  0  0
 31 53  1  0  0  0  0
 32 11  1  0  0  0  0
 33 12  1  0  0  0  0
 40 17  1  0  0  0  0
 41 17  1  0  0  0  0
 43 18  1  0  0  0  0
 44 18  1  0  0  0  0
 47 22  1  0  0  0  0
 48 24  1  0  0  0  0
 50 27  1  0  0  0  0
 51 30  1  0  0  0  0
 52 30  1  0  0  0  0
 54 31  1  0  0  0  0
 55 31  1  0  0  0  0
M  END
