2
 OpenBabel05122313113D

 13 13  0  0  0  0  0  0  0  0999 V2000
    6.4536    1.3625   -0.9809 Cl  0  0  0  0  0  0  0  0  0  0  0  0
    0.7380    0.7964    0.8517 C   0  0  0  0  0  2  0  0  0  0  0  0
    2.1095    0.9150    0.3584 C   0  0  0  0  0  0  0  0  0  0  0  0
    3.0518    1.6300    1.1451 C   0  0  0  0  0  0  0  0  0  0  0  0
    4.3840    1.7704    0.7468 C   0  0  0  0  0  0  0  0  0  0  0  0
    4.7941    1.1971   -0.4702 C   0  0  0  0  0  0  0  0  0  0  0  0
    3.8838    0.4929   -1.2798 C   0  0  0  0  0  0  0  0  0  0  0  0
    2.5572    0.3499   -0.8655 C   0  0  0  0  0  0  0  0  0  0  0  0
    0.5703    1.3493    1.8093 H   0  0  0  0  0  0  0  0  0  0  0  0
    2.7192    2.0766    2.0960 H   0  0  0  0  0  0  0  0  0  0  0  0
    5.1099    2.3173    1.3648 H   0  0  0  0  0  0  0  0  0  0  0  0
    4.2265    0.0597   -2.2301 H   0  0  0  0  0  0  0  0  0  0  0  0
    1.8291   -0.1865   -1.4910 H   0  0  0  0  0  0  0  0  0  0  0  0
  1  6  1  0  0  0  0
  2  9  1  0  0  0  0
  3  2  1  0  0  0  0
  3  4  1  0  0  0  0
  4 10  1  0  0  0  0
  5  4  2  0  0  0  0
  5 11  1  0  0  0  0
  6  5  1  0  0  0  0
  7  8  1  0  0  0  0
  7  6  2  0  0  0  0
  8  3  2  0  0  0  0
 12  7  1  0  0  0  0
 13  8  1  0  0  0  0
M  END
