1
 OpenBabel05122313113D

 56 59  0  0  1  0  0  0  0  0999 V2000
   -0.0054   -1.3370   -0.3012 C   0  0  2  0  0  3  0  0  0  0  0  0
   -1.0309   -2.2861    0.0575 C   0  0  1  0  0  3  0  0  0  0  0  0
   -1.9179   -2.4079   -1.0561 C   0  0  0  0  0  0  0  0  0  0  0  0
   -2.8250   -3.0231   -1.0771 H   0  0  0  0  0  0  0  0  0  0  0  0
   -1.4488   -1.5711   -2.0939 C   0  0  0  0  0  0  0  0  0  0  0  0
   -1.9245   -1.4220   -3.0699 H   0  0  0  0  0  0  0  0  0  0  0  0
   -0.2675   -0.8975   -1.6524 C   0  0  2  0  0  3  0  0  0  0  0  0
   -1.1356   -3.1073    1.3089 C   0  0  0  0  0  0  0  0  0  0  0  0
   -2.1950   -3.3332    1.5364 H   0  0  0  0  0  0  0  0  0  0  0  0
   -0.7054   -2.6064    2.1957 H   0  0  0  0  0  0  0  0  0  0  0  0
   -0.5937   -4.0686    1.1825 H   0  0  0  0  0  0  0  0  0  0  0  0
    0.5669   -0.0423   -2.5585 C   0  0  0  0  0  0  0  0  0  0  0  0
    1.2096   -0.6849   -3.1977 H   0  0  0  0  0  0  0  0  0  0  0  0
    1.2380    0.6365   -2.0098 H   0  0  0  0  0  0  0  0  0  0  0  0
   -0.0716    0.5649   -3.2292 H   0  0  0  0  0  0  0  0  0  0  0  0
    1.1205   -0.9686    0.6462 C   0  0  1  0  0  0  0  0  0  0  0  0
    0.8108   -1.4526    1.5950 H   0  0  0  0  0  0  0  0  0  0  0  0
    2.4556   -1.6360    0.3333 C   0  0  0  0  0  0  0  0  0  0  0  0
    2.6234   -2.4773   -0.7831 C   0  0  0  0  0  0  0  0  0  0  0  0
    1.7749   -2.6479   -1.4618 H   0  0  0  0  0  0  0  0  0  0  0  0
    3.8578   -3.0977   -1.0373 C   0  0  0  0  0  0  0  0  0  0  0  0
    3.9678   -3.7483   -1.9185 H   0  0  0  0  0  0  0  0  0  0  0  0
    4.9437   -2.8924   -0.1744 C   0  0  0  0  0  0  0  0  0  0  0  0
    5.9121   -3.3751   -0.3749 H   0  0  0  0  0  0  0  0  0  0  0  0
    4.7822   -2.0700    0.9532 C   0  0  0  0  0  0  0  0  0  0  0  0
    5.6249   -1.9063    1.6421 H   0  0  0  0  0  0  0  0  0  0  0  0
    3.5507   -1.4527    1.2050 C   0  0  0  0  0  0  0  0  0  0  0  0
    3.4430   -0.8042    2.0881 H   0  0  0  0  0  0  0  0  0  0  0  0
    1.1779    0.5566    1.0566 C   0  0  1  0  0  0  0  0  0  0  0  0
    1.4433    0.5370    2.1367 H   0  0  0  0  0  0  0  0  0  0  0  0
    2.2270    1.4996    0.4673 C   0  0  0  0  0  0  0  0  0  0  0  0
    3.1006    1.2034   -0.5963 C   0  0  0  0  0  0  0  0  0  0  0  0
    3.0819    0.2154   -1.0704 H   0  0  0  0  0  0  0  0  0  0  0  0
    4.0230    2.1579   -1.0597 C   0  0  0  0  0  0  0  0  0  0  0  0
    4.6903    1.8985   -1.8957 H   0  0  0  0  0  0  0  0  0  0  0  0
    4.1002    3.4233   -0.4640 C   0  0  0  0  0  0  0  0  0  0  0  0
    4.8226    4.1685   -0.8298 H   0  0  0  0  0  0  0  0  0  0  0  0
    3.2521    3.7252    0.6147 C   0  0  0  0  0  0  0  0  0  0  0  0
    3.3066    4.7101    1.1033 H   0  0  0  0  0  0  0  0  0  0  0  0
    2.3352    2.7723    1.0732 C   0  0  0  0  0  0  0  0  0  0  0  0
    1.6689    3.0212    1.9149 H   0  0  0  0  0  0  0  0  0  0  0  0
   -0.2296    1.1511    1.0354 C   0  0  0  0  0  0  0  0  0  0  0  0
   -0.8022    2.1221    0.1334 C   0  0  0  0  0  0  0  0  0  0  0  0
   -2.1355    2.3842    0.5902 C   0  0  0  0  0  0  0  0  0  0  0  0
   -2.8395    3.0653    0.0983 H   0  0  0  0  0  0  0  0  0  0  0  0
   -2.3951    1.5981    1.7344 C   0  0  0  0  0  0  0  0  0  0  0  0
   -3.3353    1.5581    2.2960 H   0  0  0  0  0  0  0  0  0  0  0  0
   -1.2302    0.8210    2.0212 C   0  0  2  0  0  3  0  0  0  0  0  0
   -0.1859    2.8954   -0.9987 C   0  0  0  0  0  0  0  0  0  0  0  0
   -0.9190    3.0166   -1.8207 H   0  0  0  0  0  0  0  0  0  0  0  0
    0.7268    2.4349   -1.4055 H   0  0  0  0  0  0  0  0  0  0  0  0
    0.1008    3.9076   -0.6441 H   0  0  0  0  0  0  0  0  0  0  0  0
   -1.0776   -0.0375    3.2448 C   0  0  0  0  0  0  0  0  0  0  0  0
   -1.0123    0.6001    4.1518 H   0  0  0  0  0  0  0  0  0  0  0  0
   -0.1655   -0.6628    3.2224 H   0  0  0  0  0  0  0  0  0  0  0  0
   -1.9503   -0.7080    3.3752 H   0  0  0  0  0  0  0  0  0  0  0  0
  1  2  1  0  0  0  0
  1 16  1  6  0  0  0
  2  8  1  6  0  0  0
  3  2  1  0  0  0  0
  4  3  1  0  0  0  0
  5  7  1  0  0  0  0
  5  3  2  0  0  0  0
  6  5  1  0  0  0  0
  7 12  1  6  0  0  0
  7  1  1  0  0  0  0
  8  9  1  0  0  0  0
  8 10  1  0  0  0  0
 11  8  1  0  0  0  0
 12 14  1  0  0  0  0
 13 12  1  0  0  0  0
 15 12  1  0  0  0  0
 16 29  1  0  0  0  0
 16 17  1  1  0  0  0
 18 16  1  0  0  0  0
 18 27  1  0  0  0  0
 19 18  2  0  0  0  0
 20 19  1  0  0  0  0
 21 19  1  0  0  0  0
 21 23  2  0  0  0  0
 22 21  1  0  0  0  0
 23 25  1  0  0  0  0
 24 23  1  0  0  0  0
 25 27  2  0  0  0  0
 25 26  1  0  0  0  0
 27 28  1  0  0  0  0
 29 30  1  1  0  0  0
 31 29  1  0  0  0  0
 31 40  1  0  0  0  0
 32 31  2  0  0  0  0
 33 32  1  0  0  0  0
 34 32  1  0  0  0  0
 34 36  2  0  0  0  0
 35 34  1  0  0  0  0
 36 38  1  0  0  0  0
 37 36  1  0  0  0  0
 38 40  2  0  0  0  0
 38 39  1  0  0  0  0
 40 41  1  0  0  0  0
 42 29  1  0  0  0  0
 42 48  1  0  0  0  0
 43 44  1  0  0  0  0
 43 42  2  0  0  0  0
 44 46  2  0  0  0  0
 45 44  1  0  0  0  0
 46 48  1  0  0  0  0
 46 47  1  0  0  0  0
 48 53  1  1  0  0  0
 49 52  1  0  0  0  0
 49 43  1  0  0  0  0
 50 49  1  0  0  0  0
 51 49  1  0  0  0  0
 53 56  1  0  0  0  0
 53 54  1  0  0  0  0
 55 53  1  0  0  0  0
M  END
