1
 OpenBabel05122313113D

 35 35  0  0  0  0  0  0  0  0999 V2000
   -1.0220   -1.6035   -1.4340 C   0  0  0  0  0  2  0  0  0  0  0  0
   -2.0896   -2.4256   -1.2007 N   0  0  0  0  0  0  0  0  0  0  0  0
   -3.1248   -2.1698   -2.0891 C   0  0  0  0  0  0  0  0  0  0  0  0
   -4.0707   -2.7192   -2.0675 H   0  0  0  0  0  0  0  0  0  0  0  0
   -2.6894   -1.1678   -2.9168 C   0  0  0  0  0  0  0  0  0  0  0  0
   -3.1779   -0.6739   -3.7620 H   0  0  0  0  0  0  0  0  0  0  0  0
   -1.4076   -0.8399   -2.4966 N   0  0  0  0  0  0  0  0  0  0  0  0
   -0.5728    0.1669   -3.1394 C   0  0  0  0  0  0  0  0  0  0  0  0
   -1.1959    1.0315   -3.4351 H   0  0  0  0  0  0  0  0  0  0  0  0
   -0.0863   -0.2504   -4.0440 H   0  0  0  0  0  0  0  0  0  0  0  0
    0.1963    0.5178   -2.4266 H   0  0  0  0  0  0  0  0  0  0  0  0
   -2.1720   -3.3878   -0.1014 C   0  0  0  0  0  0  0  0  0  0  0  0
   -1.2784   -4.0437   -0.1287 H   0  0  0  0  0  0  0  0  0  0  0  0
   -3.0579   -4.0239   -0.2944 H   0  0  0  0  0  0  0  0  0  0  0  0
   -2.2720   -2.7113    1.2802 C   0  0  0  0  0  0  0  0  0  0  0  0
   -2.4601   -3.4971    2.0415 H   0  0  0  0  0  0  0  0  0  0  0  0
   -1.2982   -2.2404    1.5247 H   0  0  0  0  0  0  0  0  0  0  0  0
   -3.2739   -1.6783    1.3522 N   0  0  0  0  0  0  0  0  0  0  0  0
   -4.2661   -1.9169    1.3903 H   0  0  0  0  0  0  0  0  0  0  0  0
   -2.9603   -0.3449    1.2207 C   0  0  0  0  0  0  0  0  0  0  0  0
   -1.8083    0.0869    1.1514 O   0  0  0  0  0  0  0  0  0  0  0  0
   -4.0935    0.3809    1.1868 O   0  0  0  0  0  0  0  0  0  0  0  0
   -4.0692    1.8359    0.9155 C   0  0  0  0  0  0  0  0  0  0  0  0
   -3.4720    2.0704   -0.4758 C   0  0  0  0  0  0  0  0  0  0  0  0
   -2.4081    1.7713   -0.5035 H   0  0  0  0  0  0  0  0  0  0  0  0
   -3.5428    3.1443   -0.7383 H   0  0  0  0  0  0  0  0  0  0  0  0
   -4.0311    1.4908   -1.2377 H   0  0  0  0  0  0  0  0  0  0  0  0
   -5.5518    2.2074    0.9462 C   0  0  0  0  0  0  0  0  0  0  0  0
   -5.9892    1.9862    1.9392 H   0  0  0  0  0  0  0  0  0  0  0  0
   -6.1152    1.6387    0.1808 H   0  0  0  0  0  0  0  0  0  0  0  0
   -5.6767    3.2884    0.7425 H   0  0  0  0  0  0  0  0  0  0  0  0
   -3.2975    2.5690    2.0161 C   0  0  0  0  0  0  0  0  0  0  0  0
   -2.2245    2.3076    1.9981 H   0  0  0  0  0  0  0  0  0  0  0  0
   -3.7136    2.3172    3.0115 H   0  0  0  0  0  0  0  0  0  0  0  0
   -3.4007    3.6627    1.8716 H   0  0  0  0  0  0  0  0  0  0  0  0
  1  2  1  0  0  0  0
  2 12  1  0  0  0  0
  3  4  1  0  0  0  0
  3  2  1  0  0  0  0
  5  7  1  0  0  0  0
  5  3  2  0  0  0  0
  6  5  1  0  0  0  0
  7  1  1  0  0  0  0
  8  7  1  0  0  0  0
  8 11  1  0  0  0  0
  9  8  1  0  0  0  0
 10  8  1  0  0  0  0
 12 15  1  0  0  0  0
 13 12  1  0  0  0  0
 14 12  1  0  0  0  0
 15 18  1  0  0  0  0
 15 17  1  0  0  0  0
 15 16  1  0  0  0  0
 18 19  1  0  0  0  0
 20 18  1  0  0  0  0
 21 20  2  0  0  0  0
 22 20  1  0  0  0  0
 23 28  1  0  0  0  0
 23 22  1  0  0  0  0
 23 32  1  0  0  0  0
 24 23  1  0  0  0  0
 25 24  1  0  0  0  0
 26 24  1  0  0  0  0
 27 24  1  0  0  0  0
 28 29  1  0  0  0  0
 30 28  1  0  0  0  0
 31 28  1  0  0  0  0
 32 34  1  0  0  0  0
 33 32  1  0  0  0  0
 35 32  1  0  0  0  0
M  END
