3
 OpenBabel05122313113D

 10  9  0  0  0  0  0  0  0  0999 V2000
   -2.3444   -0.4786    1.4312 O   0  0  0  0  0  0  0  0  0  0  0  0
   -4.5100    0.1987   -0.1368 O   0  0  0  0  0  0  0  0  0  0  0  0
   -2.1989   -0.6682    0.2286 C   0  0  0  0  0  3  0  0  0  0  0  0
   -3.3380   -0.2789   -0.7329 C   0  0  0  0  0  0  0  0  0  0  0  0
   -4.3926    1.5075    0.3858 C   0  0  0  0  0  0  0  0  0  0  0  0
   -2.9067    0.4518   -1.4640 H   0  0  0  0  0  0  0  0  0  0  0  0
   -3.5967   -1.1894   -1.3149 H   0  0  0  0  0  0  0  0  0  0  0  0
   -5.3960    1.8084    0.7464 H   0  0  0  0  0  0  0  0  0  0  0  0
   -4.0602    2.2350   -0.3944 H   0  0  0  0  0  0  0  0  0  0  0  0
   -3.6744    1.5569    1.2331 H   0  0  0  0  0  0  0  0  0  0  0  0
  2  5  1  0  0  0  0
  3  1  2  0  0  0  0
  4  2  1  0  0  0  0
  4  3  1  0  0  0  0
  5  8  1  0  0  0  0
  5 10  1  0  0  0  0
  6  4  1  0  0  0  0
  7  4  1  0  0  0  0
  9  5  1  0  0  0  0
M  END
