1
 OpenBabel05122313113D

 38 41  0  0  1  0  0  0  0  0999 V2000
   -1.7230   -0.8219   -1.3320 C   0  0  0  0  0  3  0  0  0  0  0  0
   -1.4371   -0.5141   -2.3573 H   0  0  0  0  0  0  0  0  0  0  0  0
   -2.3541   -2.2276   -1.3804 C   0  0  2  0  0  0  0  0  0  0  0  0
   -1.6251   -3.0552   -1.4457 H   0  0  0  0  0  0  0  0  0  0  0  0
   -3.3990   -2.2134   -2.5299 C   0  0  0  0  0  0  0  0  0  0  0  0
   -3.7351   -3.2469   -2.7534 H   0  0  0  0  0  0  0  0  0  0  0  0
   -2.9808   -1.7978   -3.4694 H   0  0  0  0  0  0  0  0  0  0  0  0
   -4.5589   -1.3503   -1.9429 C   0  0  0  0  0  0  0  0  0  0  0  0
   -4.8024   -0.4645   -2.5647 H   0  0  0  0  0  0  0  0  0  0  0  0
   -5.4900   -1.9443   -1.8425 H   0  0  0  0  0  0  0  0  0  0  0  0
   -4.0190   -0.9503   -0.5502 C   0  0  2  0  0  0  0  0  0  0  0  0
   -4.8088   -0.6138    0.1440 H   0  0  0  0  0  0  0  0  0  0  0  0
   -2.8766    0.0910   -0.7661 C   0  0  1  0  0  0  0  0  0  0  0  0
   -3.1884    0.7694   -1.5901 H   0  0  0  0  0  0  0  0  0  0  0  0
   -3.2655   -2.2289   -0.1412 C   0  0  0  0  0  0  0  0  0  0  0  0
   -3.9259   -3.1196   -0.0888 H   0  0  0  0  0  0  0  0  0  0  0  0
   -2.6976   -2.1538    0.8025 H   0  0  0  0  0  0  0  0  0  0  0  0
   -2.5192    1.0404    0.4005 C   0  0  2  0  0  0  0  0  0  0  0  0
   -1.5773    1.5240    0.0773 H   0  0  0  0  0  0  0  0  0  0  0  0
   -2.2687    0.4277    1.8098 C   0  0  1  0  0  0  0  0  0  0  0  0
   -1.8643   -0.6014    1.7919 H   0  0  0  0  0  0  0  0  0  0  0  0
   -1.3734    1.4178    2.5913 C   0  0  0  0  0  0  0  0  0  0  0  0
   -0.4763    1.7056    2.0070 H   0  0  0  0  0  0  0  0  0  0  0  0
   -1.0173    0.9588    3.5358 H   0  0  0  0  0  0  0  0  0  0  0  0
   -2.3307    2.6170    2.8744 C   0  0  0  0  0  0  0  0  0  0  0  0
   -2.4413    2.7975    3.9631 H   0  0  0  0  0  0  0  0  0  0  0  0
   -1.9791    3.5661    2.4211 H   0  0  0  0  0  0  0  0  0  0  0  0
   -3.6664    2.1482    2.2556 C   0  0  1  0  0  0  0  0  0  0  0  0
   -4.5531    2.6884    2.6443 H   0  0  0  0  0  0  0  0  0  0  0  0
   -3.5497    2.2068    0.7086 C   0  0  2  0  0  0  0  0  0  0  0  0
   -3.0774    3.1696    0.4166 H   0  0  0  0  0  0  0  0  0  0  0  0
   -4.9188    2.1599    0.0222 C   0  0  0  0  0  0  0  0  0  0  0  0
   -4.8360    2.0756   -1.0798 H   0  0  0  0  0  0  0  0  0  0  0  0
   -5.4808    3.0910    0.2401 H   0  0  0  0  0  0  0  0  0  0  0  0
   -5.5415    1.3129    0.3713 H   0  0  0  0  0  0  0  0  0  0  0  0
   -3.6210    0.6294    2.5239 C   0  0  0  0  0  0  0  0  0  0  0  0
   -4.4587    0.0708    2.0641 H   0  0  0  0  0  0  0  0  0  0  0  0
   -3.5852    0.3773    3.6043 H   0  0  0  0  0  0  0  0  0  0  0  0
  1 13  1  0  0  0  0
  2  1  1  0  0  0  0
  3  4  1  6  0  0  0
  3  1  1  0  0  0  0
  3 15  1  0  0  0  0
  5  8  1  0  0  0  0
  5  3  1  0  0  0  0
  6  5  1  0  0  0  0
  7  5  1  0  0  0  0
  8 10  1  0  0  0  0
  8 11  1  0  0  0  0
  9  8  1  0  0  0  0
 11 15  1  0  0  0  0
 11 12  1  1  0  0  0
 13 14  1  6  0  0  0
 13 11  1  0  0  0  0
 13 18  1  0  0  0  0
 15 16  1  0  0  0  0
 15 17  1  0  0  0  0
 18 19  1  6  0  0  0
 18 30  1  0  0  0  0
 18 20  1  0  0  0  0
 20 21  1  6  0  0  0
 20 36  1  0  0  0  0
 20 22  1  0  0  0  0
 22 25  1  0  0  0  0
 22 24  1  0  0  0  0
 23 22  1  0  0  0  0
 25 26  1  0  0  0  0
 27 25  1  0  0  0  0
 28 36  1  0  0  0  0
 28 29  1  1  0  0  0
 28 25  1  0  0  0  0
 30 31  1  6  0  0  0
 30 28  1  0  0  0  0
 32 34  1  0  0  0  0
 32 35  1  0  0  0  0
 32 30  1  0  0  0  0
 33 32  1  0  0  0  0
 36 38  1  0  0  0  0
 37 36  1  0  0  0  0
M  END
