4
 OpenBabel05122313113D

 53 54  0  0  1  0  0  0  0  0999 V2000
    0.5337    1.8988   -0.2290 N   0  0  0  0  0  0  0  0  0  0  0  0
    0.7834    3.2676   -0.2509 N   0  0  0  0  0  0  0  0  0  0  0  0
    4.0602   -0.5234    0.6425 N   0  0  0  0  0  0  0  0  0  0  0  0
   -0.7850    1.6191   -0.1837 C   0  0  0  0  0  3  0  0  0  0  0  0
   -1.4472    2.8939   -0.2295 C   0  0  0  0  0  0  0  0  0  0  0  0
   -2.8088    3.2638   -0.2051 C   0  0  0  0  0  0  0  0  0  0  0  0
   -3.5800    2.4854   -0.1285 H   0  0  0  0  0  0  0  0  0  0  0  0
   -3.1295    4.6185   -0.2734 C   0  0  0  0  0  0  0  0  0  0  0  0
   -4.1826    4.9347   -0.2568 H   0  0  0  0  0  0  0  0  0  0  0  0
   -2.1114    5.6043   -0.3633 C   0  0  0  0  0  0  0  0  0  0  0  0
   -2.3973    6.6656   -0.4209 H   0  0  0  0  0  0  0  0  0  0  0  0
   -0.7553    5.2707   -0.3765 C   0  0  0  0  0  0  0  0  0  0  0  0
    0.0191    6.0483   -0.4415 H   0  0  0  0  0  0  0  0  0  0  0  0
   -0.4358    3.8999   -0.2951 C   0  0  1  0  0  3  0  0  0  0  0  0
    2.0856    3.8075   -0.5563 C   0  0  0  0  0  0  0  0  0  0  0  0
    2.0228    4.9063   -0.4592 H   0  0  0  0  0  0  0  0  0  0  0  0
    2.4133    3.5609   -1.5894 H   0  0  0  0  0  0  0  0  0  0  0  0
    2.8477    3.4454    0.1615 H   0  0  0  0  0  0  0  0  0  0  0  0
    1.6157    0.9360   -0.0746 C   0  0  0  0  0  0  0  0  0  0  0  0
    2.4819    1.2473   -0.6866 H   0  0  0  0  0  0  0  0  0  0  0  0
    1.2233    0.0024   -0.5246 H   0  0  0  0  0  0  0  0  0  0  0  0
    2.0109    0.7120    1.3880 C   0  0  0  0  0  0  0  0  0  0  0  0
    1.0871    0.5694    1.9887 H   0  0  0  0  0  0  0  0  0  0  0  0
    2.5198    1.6140    1.7929 H   0  0  0  0  0  0  0  0  0  0  0  0
    2.8905   -0.5328    1.5217 C   0  0  0  0  0  0  0  0  0  0  0  0
    3.1781   -0.6808    2.5956 H   0  0  0  0  0  0  0  0  0  0  0  0
    2.2679   -1.4094    1.2547 H   0  0  0  0  0  0  0  0  0  0  0  0
    5.1441    0.2951    1.1756 C   0  0  0  0  0  0  0  0  0  0  0  0
    5.6936   -0.2417    1.9965 H   0  0  0  0  0  0  0  0  0  0  0  0
    4.6907    1.1896    1.6564 H   0  0  0  0  0  0  0  0  0  0  0  0
    6.1605    0.7964    0.1336 C   0  0  0  0  0  0  0  0  0  0  0  0
    6.6334   -0.0914   -0.3440 H   0  0  0  0  0  0  0  0  0  0  0  0
    5.4848    1.6149   -0.9700 C   0  0  0  0  0  0  0  0  0  0  0  0
    4.7015    1.0217   -1.4799 H   0  0  0  0  0  0  0  0  0  0  0  0
    6.2176    1.9512   -1.7313 H   0  0  0  0  0  0  0  0  0  0  0  0
    5.0069    2.5244   -0.5445 H   0  0  0  0  0  0  0  0  0  0  0  0
    7.2700    1.5918    0.8303 C   0  0  0  0  0  0  0  0  0  0  0  0
    6.8582    2.4990    1.3229 H   0  0  0  0  0  0  0  0  0  0  0  0
    8.0407    1.9271    0.1074 H   0  0  0  0  0  0  0  0  0  0  0  0
    7.7771    0.9896    1.6118 H   0  0  0  0  0  0  0  0  0  0  0  0
    4.4827   -1.8698    0.2620 C   0  0  0  0  0  0  0  0  0  0  0  0
    4.5622   -2.5372    1.1627 H   0  0  0  0  0  0  0  0  0  0  0  0
    5.5090   -1.8073   -0.1576 H   0  0  0  0  0  0  0  0  0  0  0  0
    3.5832   -2.5408   -0.7921 C   0  0  0  0  0  0  0  0  0  0  0  0
    2.5431   -2.5525   -0.3975 H   0  0  0  0  0  0  0  0  0  0  0  0
    3.5642   -1.7640   -2.1111 C   0  0  0  0  0  0  0  0  0  0  0  0
    3.2575   -0.7136   -1.9478 H   0  0  0  0  0  0  0  0  0  0  0  0
    2.8498   -2.2125   -2.8301 H   0  0  0  0  0  0  0  0  0  0  0  0
    4.5705   -1.7565   -2.5827 H   0  0  0  0  0  0  0  0  0  0  0  0
    4.0121   -3.9973   -0.9978 C   0  0  0  0  0  0  0  0  0  0  0  0
    5.0560   -4.0561   -1.3743 H   0  0  0  0  0  0  0  0  0  0  0  0
    3.3638   -4.5046   -1.7405 H   0  0  0  0  0  0  0  0  0  0  0  0
    3.9636   -4.5774   -0.0530 H   0  0  0  0  0  0  0  0  0  0  0  0
  1  4  1  0  0  0  0
  1 19  1  0  0  0  0
  2  1  1  0  0  0  0
  3 28  1  0  0  0  0
  3 25  1  0  0  0  0
  5  6  1  0  0  0  0
  5  4  2  0  0  0  0
  6  7  1  0  0  0  0
  8  9  1  0  0  0  0
  8  6  2  0  0  0  0
 10  8  1  0  0  0  0
 11 10  1  0  0  0  0
 12 10  2  0  0  0  0
 13 12  1  0  0  0  0
 14 12  1  1  0  0  0
 14  2  1  0  0  0  0
 14  5  1  0  0  0  0
 15 16  1  0  0  0  0
 15  2  1  0  0  0  0
 15 18  1  0  0  0  0
 17 15  1  0  0  0  0
 19 22  1  0  0  0  0
 20 19  1  0  0  0  0
 21 19  1  0  0  0  0
 22 25  1  0  0  0  0
 22 24  1  0  0  0  0
 22 23  1  0  0  0  0
 25 26  1  0  0  0  0
 27 25  1  0  0  0  0
 28 30  1  0  0  0  0
 28 29  1  0  0  0  0
 31 37  1  0  0  0  0
 31 28  1  0  0  0  0
 32 31  1  0  0  0  0
 33 36  1  0  0  0  0
 33 31  1  0  0  0  0
 34 33  1  0  0  0  0
 35 33  1  0  0  0  0
 37 38  1  0  0  0  0
 37 40  1  0  0  0  0
 39 37  1  0  0  0  0
 41  3  1  0  0  0  0
 41 42  1  0  0  0  0
 43 41  1  0  0  0  0
 44 45  1  0  0  0  0
 44 41  1  0  0  0  0
 46 47  1  0  0  0  0
 46 44  1  0  0  0  0
 48 46  1  0  0  0  0
 49 46  1  0  0  0  0
 50 44  1  0  0  0  0
 50 53  1  0  0  0  0
 51 50  1  0  0  0  0
 52 50  1  0  0  0  0
M  END
