8
 OpenBabel05122313113D

 67 69  0  0  1  0  0  0  0  0999 V2000
    1.8259   -1.8405   -1.1438 Si  0  0  0  0  0  0  0  0  0  0  0  0
   -3.1744    1.1459   -0.0207 Si  0  0  0  0  0  0  0  0  0  0  0  0
   -1.3947   -1.5226   -1.2107 O   0  0  0  0  0  0  0  0  0  0  0  0
   -2.3586   -1.4153   -1.0334 H   0  0  0  0  0  0  0  0  0  0  0  0
   -0.7474   -0.4323   -0.7607 C   0  0  0  0  0  0  0  0  0  0  0  0
    0.7036   -0.3720   -0.7409 C   0  0  0  0  0  0  0  0  0  0  0  0
    1.0252    0.9638   -0.3181 C   0  0  0  0  0  0  0  0  0  0  0  0
   -0.2246    1.6812   -0.0425 C   0  0  2  0  0  3  0  0  0  0  0  0
   -1.3431    0.8148   -0.3158 C   0  0  0  0  0  0  0  0  0  0  0  0
    1.0742   -3.4359   -0.4714 C   0  0  0  0  0  0  0  0  0  0  0  0
    0.0482   -3.5819   -0.8605 H   0  0  0  0  0  0  0  0  0  0  0  0
    1.0203   -3.4109    0.6348 H   0  0  0  0  0  0  0  0  0  0  0  0
    1.7016   -4.3015   -0.7674 H   0  0  0  0  0  0  0  0  0  0  0  0
    2.0336   -1.9711   -3.0204 C   0  0  0  0  0  0  0  0  0  0  0  0
    2.4693   -1.0500   -3.4575 H   0  0  0  0  0  0  0  0  0  0  0  0
    1.0408   -2.1288   -3.4888 H   0  0  0  0  0  0  0  0  0  0  0  0
    2.6824   -2.8280   -3.2952 H   0  0  0  0  0  0  0  0  0  0  0  0
    3.5019   -1.5603   -0.3066 C   0  0  0  0  0  0  0  0  0  0  0  0
    4.6980   -1.4011   -1.0389 C   0  0  0  0  0  0  0  0  0  0  0  0
    4.6781   -1.4524   -2.1394 H   0  0  0  0  0  0  0  0  0  0  0  0
    5.9220   -1.1660   -0.3896 C   0  0  0  0  0  0  0  0  0  0  0  0
    6.8427   -1.0407   -0.9805 H   0  0  0  0  0  0  0  0  0  0  0  0
    5.9697   -1.0899    1.0111 C   0  0  0  0  0  0  0  0  0  0  0  0
    6.9268   -0.9025    1.5221 H   0  0  0  0  0  0  0  0  0  0  0  0
    4.7913   -1.2543    1.7589 C   0  0  0  0  0  0  0  0  0  0  0  0
    4.8221   -1.1931    2.8578 H   0  0  0  0  0  0  0  0  0  0  0  0
    3.5730   -1.4891    1.1051 C   0  0  0  0  0  0  0  0  0  0  0  0
    2.6493   -1.5853    1.6993 H   0  0  0  0  0  0  0  0  0  0  0  0
    2.3960    1.5777   -0.2468 C   0  0  0  0  0  0  0  0  0  0  0  0
    3.0752    0.9128    0.3210 H   0  0  0  0  0  0  0  0  0  0  0  0
    2.3469    2.5293    0.3223 H   0  0  0  0  0  0  0  0  0  0  0  0
    3.0124    1.8420   -1.6313 C   0  0  0  0  0  0  0  0  0  0  0  0
    3.0409    0.8858   -2.1962 H   0  0  0  0  0  0  0  0  0  0  0  0
    2.3474    2.5164   -2.2144 H   0  0  0  0  0  0  0  0  0  0  0  0
    4.4202    2.4279   -1.5415 C   0  0  0  0  0  0  0  0  0  0  0  0
    4.4230    3.3918   -0.9906 H   0  0  0  0  0  0  0  0  0  0  0  0
    4.8509    2.6144   -2.5458 H   0  0  0  0  0  0  0  0  0  0  0  0
    5.1001    1.7344   -1.0042 H   0  0  0  0  0  0  0  0  0  0  0  0
   -0.3180    3.1368    0.3206 C   0  0  0  0  0  0  0  0  0  0  0  0
    0.4968    3.4093    1.0237 H   0  0  0  0  0  0  0  0  0  0  0  0
   -1.2626    3.3214    0.8722 H   0  0  0  0  0  0  0  0  0  0  0  0
   -0.2578    4.0583   -0.9110 C   0  0  0  0  0  0  0  0  0  0  0  0
    0.7096    3.9014   -1.4345 H   0  0  0  0  0  0  0  0  0  0  0  0
   -1.0422    3.7452   -1.6333 H   0  0  0  0  0  0  0  0  0  0  0  0
   -0.4280    5.5343   -0.5545 C   0  0  0  0  0  0  0  0  0  0  0  0
   -1.4083    5.7204   -0.0673 H   0  0  0  0  0  0  0  0  0  0  0  0
   -0.3720    6.1817   -1.4524 H   0  0  0  0  0  0  0  0  0  0  0  0
    0.3583    5.8716    0.1525 H   0  0  0  0  0  0  0  0  0  0  0  0
   -3.8356    2.4061   -1.2672 C   0  0  0  0  0  0  0  0  0  0  0  0
   -4.9352    2.5213   -1.1763 H   0  0  0  0  0  0  0  0  0  0  0  0
   -3.5988    2.1131   -2.3100 H   0  0  0  0  0  0  0  0  0  0  0  0
   -3.3752    3.3990   -1.0880 H   0  0  0  0  0  0  0  0  0  0  0  0
   -3.4994    1.7293    1.7458 C   0  0  0  0  0  0  0  0  0  0  0  0
   -3.0840    2.7405    1.9288 H   0  0  0  0  0  0  0  0  0  0  0  0
   -3.0213    1.0376    2.4675 H   0  0  0  0  0  0  0  0  0  0  0  0
   -4.5897    1.7646    1.9464 H   0  0  0  0  0  0  0  0  0  0  0  0
   -4.0686   -0.5176   -0.2750 C   0  0  0  0  0  0  0  0  0  0  0  0
   -4.7972   -0.8018   -1.4558 C   0  0  0  0  0  0  0  0  0  0  0  0
   -4.8608   -0.0453   -2.2540 H   0  0  0  0  0  0  0  0  0  0  0  0
   -5.4426   -2.0361   -1.6340 C   0  0  0  0  0  0  0  0  0  0  0  0
   -6.0021   -2.2344   -2.5611 H   0  0  0  0  0  0  0  0  0  0  0  0
   -5.3725   -3.0163   -0.6314 C   0  0  0  0  0  0  0  0  0  0  0  0
   -5.8741   -3.9860   -0.7717 H   0  0  0  0  0  0  0  0  0  0  0  0
   -4.6583   -2.7571    0.5496 C   0  0  0  0  0  0  0  0  0  0  0  0
   -4.5944   -3.5225    1.3379 H   0  0  0  0  0  0  0  0  0  0  0  0
   -4.0173   -1.5215    0.7254 C   0  0  0  0  0  0  0  0  0  0  0  0
   -3.4534   -1.3424    1.6538 H   0  0  0  0  0  0  0  0  0  0  0  0
  1  6  1  0  0  0  0
  1 10  1  0  0  0  0
  1 18  1  0  0  0  0
  2 53  1  0  0  0  0
  3  4  1  0  0  0  0
  3  5  1  0  0  0  0
  5  6  1  0  0  0  0
  5  9  2  0  0  0  0
  6  7  2  0  0  0  0
  7 29  1  0  0  0  0
  7  8  1  0  0  0  0
  8 39  1  6  0  0  0
  9  8  1  0  0  0  0
  9  2  1  0  0  0  0
 10 12  1  0  0  0  0
 11 10  1  0  0  0  0
 13 10  1  0  0  0  0
 14  1  1  0  0  0  0
 15 14  1  0  0  0  0
 16 14  1  0  0  0  0
 17 14  1  0  0  0  0
 18 27  1  0  0  0  0
 19 21  1  0  0  0  0
 19 18  2  0  0  0  0
 20 19  1  0  0  0  0
 21 23  2  0  0  0  0
 22 21  1  0  0  0  0
 23 24  1  0  0  0  0
 23 25  1  0  0  0  0
 25 26  1  0  0  0  0
 27 28  1  0  0  0  0
 27 25  2  0  0  0  0
 29 30  1  0  0  0  0
 29 31  1  0  0  0  0
 32 35  1  0  0  0  0
 32 29  1  0  0  0  0
 33 32  1  0  0  0  0
 34 32  1  0  0  0  0
 35 38  1  0  0  0  0
 35 36  1  0  0  0  0
 37 35  1  0  0  0  0
 39 41  1  0  0  0  0
 39 40  1  0  0  0  0
 42 45  1  0  0  0  0
 42 39  1  0  0  0  0
 43 42  1  0  0  0  0
 44 42  1  0  0  0  0
 45 46  1  0  0  0  0
 45 48  1  0  0  0  0
 47 45  1  0  0  0  0
 49 50  1  0  0  0  0
 49 52  1  0  0  0  0
 49  2  1  0  0  0  0
 51 49  1  0  0  0  0
 53 54  1  0  0  0  0
 53 56  1  0  0  0  0
 53 55  1  0  0  0  0
 57  2  1  0  0  0  0
 57 66  1  0  0  0  0
 58 57  2  0  0  0  0
 59 58  1  0  0  0  0
 60 58  1  0  0  0  0
 60 62  2  0  0  0  0
 61 60  1  0  0  0  0
 62 64  1  0  0  0  0
 63 62  1  0  0  0  0
 64 66  2  0  0  0  0
 64 65  1  0  0  0  0
 66 67  1  0  0  0  0
M  END
