28
 OpenBabel05122313113D

 84 86  0  0  1  0  0  0  0  0999 V2000
    0.6325    1.9355    0.1880 P   0  0  1  0  0  0  0  0  0  0  0  0
    2.4495   -0.6437    0.1756 P   0  0  0  0  0  0  0  0  0  0  0  0
   -3.8759   -0.2270   -0.2986 C   0  0  0  0  0  0  0  0  0  0  0  0
   -4.9300    0.4600    0.3400 C   0  0  0  0  0  0  0  0  0  0  0  0
   -4.6962    1.3324    0.9718 H   0  0  0  0  0  0  0  0  0  0  0  0
   -2.0143    0.1290    1.3689 C   0  0  0  0  0  0  0  0  0  0  0  0
   -4.1887   -1.3454   -1.0936 C   0  0  0  0  0  0  0  0  0  0  0  0
   -3.3827   -1.8903   -1.6060 H   0  0  0  0  0  0  0  0  0  0  0  0
   -0.9613    0.9522    3.4135 C   0  0  0  0  0  0  0  0  0  0  0  0
   -0.4060    1.7457    3.9392 H   0  0  0  0  0  0  0  0  0  0  0  0
   -1.3319   -0.2096    4.1053 C   0  0  0  0  0  0  0  0  0  0  0  0
   -1.0673   -0.3276    5.1670 H   0  0  0  0  0  0  0  0  0  0  0  0
   -2.4400    0.2672   -0.0966 C   0  0  1  0  0  0  0  0  0  0  0  0
   -2.4617    1.3530   -0.3314 H   0  0  0  0  0  0  0  0  0  0  0  0
   -0.8172   -1.6471   -0.8491 C   0  0  0  0  0  3  0  0  0  0  0  0
   -0.9720   -2.1480    0.1207 H   0  0  0  0  0  0  0  0  0  0  0  0
   -2.0411   -1.2119    3.4300 C   0  0  0  0  0  0  0  0  0  0  0  0
   -2.3439   -2.1312    3.9539 H   0  0  0  0  0  0  0  0  0  0  0  0
   -1.2781    1.1404    2.0520 C   0  0  0  0  0  0  0  0  0  0  0  0
   -0.7753    2.3792    1.3568 C   0  0  0  0  0  0  0  0  0  0  0  0
   -0.4506    3.1402    2.0945 H   0  0  0  0  0  0  0  0  0  0  0  0
   -1.5635    2.8413    0.7266 H   0  0  0  0  0  0  0  0  0  0  0  0
   -2.3872   -1.0276    2.0838 C   0  0  0  0  0  0  0  0  0  0  0  0
   -2.9861   -1.7932    1.5678 H   0  0  0  0  0  0  0  0  0  0  0  0
   -6.2590    0.0432    0.1923 C   0  0  0  0  0  0  0  0  0  0  0  0
   -7.0663    0.5953    0.6981 H   0  0  0  0  0  0  0  0  0  0  0  0
    0.8101    3.5370   -0.8418 C   0  0  0  0  0  0  0  0  0  0  0  0
   -1.4458   -0.3497   -1.0891 C   0  0  1  0  0  3  0  0  0  0  0  0
   -1.5569    0.0618   -2.4743 C   0  0  0  0  0  0  0  0  0  0  0  0
   -2.0588    1.0195   -2.6882 H   0  0  0  0  0  0  0  0  0  0  0  0
   -5.5213   -1.7681   -1.2402 C   0  0  0  0  0  0  0  0  0  0  0  0
   -5.7458   -2.6459   -1.8657 H   0  0  0  0  0  0  0  0  0  0  0  0
    2.1330    1.9439    1.3250 C   0  0  0  0  0  0  0  0  0  0  0  0
    2.5446    2.9671    1.4583 H   0  0  0  0  0  0  0  0  0  0  0  0
    1.7549    1.6172    2.3151 H   0  0  0  0  0  0  0  0  0  0  0  0
   -6.5603   -1.0778   -0.6001 C   0  0  0  0  0  0  0  0  0  0  0  0
   -7.6034   -1.4091   -0.7184 H   0  0  0  0  0  0  0  0  0  0  0  0
   -0.3397    3.5298   -1.8626 C   0  0  0  0  0  0  0  0  0  0  0  0
   -0.3047    2.6201   -2.4940 H   0  0  0  0  0  0  0  0  0  0  0  0
   -0.2677    4.4193   -2.5248 H   0  0  0  0  0  0  0  0  0  0  0  0
   -1.3351    3.5647   -1.3735 H   0  0  0  0  0  0  0  0  0  0  0  0
    3.2079    0.9700    0.8115 C   0  0  0  0  0  0  0  0  0  0  0  0
    3.9862    0.7800    1.5805 H   0  0  0  0  0  0  0  0  0  0  0  0
    3.7294    1.4197   -0.0577 H   0  0  0  0  0  0  0  0  0  0  0  0
   -0.4296   -2.4675   -1.9658 C   0  0  0  0  0  0  0  0  0  0  0  0
   -0.0485   -3.4813   -1.7615 H   0  0  0  0  0  0  0  0  0  0  0  0
    2.1469    3.4540   -1.5942 C   0  0  0  0  0  0  0  0  0  0  0  0
    3.0169    3.4880   -0.9074 H   0  0  0  0  0  0  0  0  0  0  0  0
    2.2429    4.3128   -2.2926 H   0  0  0  0  0  0  0  0  0  0  0  0
    2.2099    2.5226   -2.1915 H   0  0  0  0  0  0  0  0  0  0  0  0
   -1.0975   -0.7197   -3.5193 C   0  0  0  0  0  0  0  0  0  0  0  0
   -1.1960   -0.3591   -4.5548 H   0  0  0  0  0  0  0  0  0  0  0  0
   -0.5409   -2.0158   -3.2689 C   0  0  0  0  0  0  0  0  0  0  0  0
   -0.2236   -2.6502   -4.1101 H   0  0  0  0  0  0  0  0  0  0  0  0
    0.7630    4.8085    0.0153 C   0  0  0  0  0  0  0  0  0  0  0  0
   -0.2178    4.9415    0.5132 H   0  0  0  0  0  0  0  0  0  0  0  0
    0.9301    5.7031   -0.6238 H   0  0  0  0  0  0  0  0  0  0  0  0
    1.5493    4.8146    0.7980 H   0  0  0  0  0  0  0  0  0  0  0  0
    3.6423   -1.1437   -1.2439 C   0  0  0  0  0  0  0  0  0  0  0  0
    2.6581   -1.8358    1.6663 C   0  0  0  0  0  0  0  0  0  0  0  0
    1.8327   -3.1058    1.3922 C   0  0  0  0  0  0  0  0  0  0  0  0
    0.7812   -2.8464    1.1649 H   0  0  0  0  0  0  0  0  0  0  0  0
    1.8415   -3.7539    2.2948 H   0  0  0  0  0  0  0  0  0  0  0  0
    2.2270   -3.7003    0.5479 H   0  0  0  0  0  0  0  0  0  0  0  0
    3.4270   -2.6279   -1.5823 C   0  0  0  0  0  0  0  0  0  0  0  0
    3.8289   -3.3030   -0.8022 H   0  0  0  0  0  0  0  0  0  0  0  0
    3.9534   -2.8691   -2.5308 H   0  0  0  0  0  0  0  0  0  0  0  0
    2.3512   -2.8500   -1.7272 H   0  0  0  0  0  0  0  0  0  0  0  0
    3.1697   -0.3107   -2.4522 C   0  0  0  0  0  0  0  0  0  0  0  0
    2.1001   -0.5026   -2.6766 H   0  0  0  0  0  0  0  0  0  0  0  0
    3.7707   -0.5780   -3.3484 H   0  0  0  0  0  0  0  0  0  0  0  0
    3.2954    0.7768   -2.2811 H   0  0  0  0  0  0  0  0  0  0  0  0
    5.1297   -0.8653   -0.9809 C   0  0  0  0  0  0  0  0  0  0  0  0
    5.3263    0.2067   -0.7811 H   0  0  0  0  0  0  0  0  0  0  0  0
    5.7204   -1.1399   -1.8821 H   0  0  0  0  0  0  0  0  0  0  0  0
    5.5300   -1.4505   -0.1328 H   0  0  0  0  0  0  0  0  0  0  0  0
    4.1089   -2.2006    2.0058 C   0  0  0  0  0  0  0  0  0  0  0  0
    4.5816   -2.8231    1.2215 H   0  0  0  0  0  0  0  0  0  0  0  0
    4.1330   -2.7888    2.9492 H   0  0  0  0  0  0  0  0  0  0  0  0
    4.7410   -1.3031    2.1642 H   0  0  0  0  0  0  0  0  0  0  0  0
    2.0174   -1.1134    2.8652 C   0  0  0  0  0  0  0  0  0  0  0  0
    2.6192   -0.2481    3.2076 H   0  0  0  0  0  0  0  0  0  0  0  0
    1.9385   -1.8176    3.7210 H   0  0  0  0  0  0  0  0  0  0  0  0
    0.9937   -0.7590    2.6319 H   0  0  0  0  0  0  0  0  0  0  0  0
  1 27  1  6  0  0  0
  1 33  1  0  0  0  0
  1 20  1  0  0  0  0
  2 42  1  0  0  0  0
  2 60  1  0  0  0  0
  3 13  1  0  0  0  0
  3  4  1  0  0  0  0
  4  5  1  0  0  0  0
  6 19  2  0  0  0  0
  6 23  1  0  0  0  0
  7  3  2  0  0  0  0
  8  7  1  0  0  0  0
  9 10  1  0  0  0  0
  9 11  2  0  0  0  0
 11 12  1  0  0  0  0
 13 14  1  6  0  0  0
 13  6  1  0  0  0  0
 15 16  1  0  0  0  0
 17 18  1  0  0  0  0
 17 11  1  0  0  0  0
 19  9  1  0  0  0  0
 20 19  1  0  0  0  0
 20 21  1  0  0  0  0
 22 20  1  0  0  0  0
 23 17  2  0  0  0  0
 24 23  1  0  0  0  0
 25  4  2  0  0  0  0
 25 26  1  0  0  0  0
 27 55  1  0  0  0  0
 28 15  1  0  0  0  0
 28 13  1  6  0  0  0
 29 28  1  0  0  0  0
 30 29  1  0  0  0  0
 31  7  1  0  0  0  0
 31 36  2  0  0  0  0
 32 31  1  0  0  0  0
 33 34  1  0  0  0  0
 33 35  1  0  0  0  0
 36 25  1  0  0  0  0
 37 36  1  0  0  0  0
 38 41  1  0  0  0  0
 38 27  1  0  0  0  0
 39 38  1  0  0  0  0
 40 38  1  0  0  0  0
 42 33  1  0  0  0  0
 42 43  1  0  0  0  0
 44 42  1  0  0  0  0
 45 46  1  0  0  0  0
 45 15  1  0  0  0  0
 47 48  1  0  0  0  0
 47 27  1  0  0  0  0
 49 47  1  0  0  0  0
 50 47  1  0  0  0  0
 51 53  1  0  0  0  0
 51 29  2  0  0  0  0
 52 51  1  0  0  0  0
 53 45  2  0  0  0  0
 54 53  1  0  0  0  0
 55 56  1  0  0  0  0
 55 58  1  0  0  0  0
 57 55  1  0  0  0  0
 59 73  1  0  0  0  0
 59  2  1  0  0  0  0
 60 77  1  0  0  0  0
 60 81  1  0  0  0  0
 61 60  1  0  0  0  0
 61 63  1  0  0  0  0
 62 61  1  0  0  0  0
 64 61  1  0  0  0  0
 65 59  1  0  0  0  0
 65 66  1  0  0  0  0
 67 65  1  0  0  0  0
 68 65  1  0  0  0  0
 69 72  1  0  0  0  0
 69 59  1  0  0  0  0
 70 69  1  0  0  0  0
 71 69  1  0  0  0  0
 73 74  1  0  0  0  0
 73 76  1  0  0  0  0
 75 73  1  0  0  0  0
 77 80  1  0  0  0  0
 77 79  1  0  0  0  0
 78 77  1  0  0  0  0
 81 82  1  0  0  0  0
 81 83  1  0  0  0  0
 84 81  1  0  0  0  0
M  END
