2
 OpenBabel05122313113D

 30 29  0  0  1  0  0  0  0  0999 V2000
    3.2347    0.7522    1.2944 N   0  0  0  0  0  0  0  0  0  0  0  0
    2.2933    0.8041   -0.9587 C   0  0  0  0  0  3  0  0  0  0  0  0
    2.1784    1.9015   -0.9488 H   0  0  0  0  0  0  0  0  0  0  0  0
    2.5003    0.4023   -1.9638 H   0  0  0  0  0  0  0  0  0  0  0  0
    3.0924    0.1952    0.0773 C   0  0  2  0  0  3  0  0  0  0  0  0
    3.6970   -1.1355   -0.1484 C   0  0  0  0  0  0  0  0  0  0  0  0
    3.4585   -1.9061    0.6037 H   0  0  0  0  0  0  0  0  0  0  0  0
    4.5067   -1.4933   -1.1826 C   0  0  0  0  0  0  0  0  0  0  0  0
    4.9909   -2.9116   -1.3026 C   0  0  0  0  0  0  0  0  0  0  0  0
    4.5723   -3.5724   -0.5203 H   0  0  0  0  0  0  0  0  0  0  0  0
    6.0995   -2.9566   -1.2478 H   0  0  0  0  0  0  0  0  0  0  0  0
    4.7182   -3.3276   -2.2964 H   0  0  0  0  0  0  0  0  0  0  0  0
    5.0159   -0.5491   -2.2366 C   0  0  0  0  0  0  0  0  0  0  0  0
    4.7880    0.5118   -2.0308 H   0  0  0  0  0  0  0  0  0  0  0  0
    4.5944   -0.8121   -3.2309 H   0  0  0  0  0  0  0  0  0  0  0  0
    6.1162   -0.6569   -2.3374 H   0  0  0  0  0  0  0  0  0  0  0  0
    4.0116    0.1134    2.3675 C   0  0  0  0  0  0  0  0  0  0  0  0
    4.5329    0.9229    2.9189 H   0  0  0  0  0  0  0  0  0  0  0  0
    4.7997   -0.5077    1.9005 H   0  0  0  0  0  0  0  0  0  0  0  0
    3.1506   -0.7150    3.3206 C   0  0  0  0  0  0  0  0  0  0  0  0
    3.7782   -1.1389    4.1288 H   0  0  0  0  0  0  0  0  0  0  0  0
    2.6539   -1.5542    2.7944 H   0  0  0  0  0  0  0  0  0  0  0  0
    2.3595   -0.1012    3.7966 H   0  0  0  0  0  0  0  0  0  0  0  0
    2.5649    2.0105    1.6443 C   0  0  0  0  0  0  0  0  0  0  0  0
    2.3657    1.9820    2.7345 H   0  0  0  0  0  0  0  0  0  0  0  0
    1.5740    2.0313    1.1426 H   0  0  0  0  0  0  0  0  0  0  0  0
    3.3861    3.2492    1.2897 C   0  0  0  0  0  0  0  0  0  0  0  0
    2.8466    4.1641    1.6040 H   0  0  0  0  0  0  0  0  0  0  0  0
    3.5685    3.3182    0.1994 H   0  0  0  0  0  0  0  0  0  0  0  0
    4.3685    3.2442    1.8028 H   0  0  0  0  0  0  0  0  0  0  0  0
  1 24  1  0  0  0  0
  1 17  1  0  0  0  0
  2  3  1  0  0  0  0
  4  2  1  0  0  0  0
  5  2  1  1  0  0  0
  5  1  1  0  0  0  0
  6  5  1  0  0  0  0
  6  7  1  0  0  0  0
  8  6  2  0  0  0  0
  9 11  1  0  0  0  0
  9  8  1  0  0  0  0
  9 10  1  0  0  0  0
 12  9  1  0  0  0  0
 13 14  1  0  0  0  0
 13  8  1  0  0  0  0
 15 13  1  0  0  0  0
 16 13  1  0  0  0  0
 17 18  1  0  0  0  0
 17 20  1  0  0  0  0
 19 17  1  0  0  0  0
 20 23  1  0  0  0  0
 20 21  1  0  0  0  0
 22 20  1  0  0  0  0
 24 25  1  0  0  0  0
 26 24  1  0  0  0  0
 27 28  1  0  0  0  0
 27 24  1  0  0  0  0
 27 30  1  0  0  0  0
 29 27  1  0  0  0  0
M  END
