7
 OpenBabel05122313113D

 16 16  0  0  0  0  0  0  0  0999 V2000
   -2.6551    0.9337   -1.3281 C   0  0  0  0  0  0  0  0  0  0  0  0
   -3.7526    0.1391   -0.9732 C   0  0  0  0  0  3  0  0  0  0  0  0
   -3.9073   -1.2280   -0.6617 C   0  0  0  0  0  0  0  0  0  0  0  0
   -2.9692   -2.2434   -0.4647 C   0  0  0  0  0  0  0  0  0  0  0  0
   -1.5770   -2.3624   -0.7019 C   0  0  0  0  0  3  0  0  0  0  0  0
   -0.5961   -1.7226   -1.5187 C   0  0  0  0  0  3  0  0  0  0  0  0
   -0.5145   -0.4141   -2.0929 C   0  0  0  0  0  3  0  0  0  0  0  0
   -1.3201    0.7374   -1.8058 C   0  0  0  0  0  0  0  0  0  0  0  0
   -2.8960    2.0125   -1.2968 H   0  0  0  0  0  0  0  0  0  0  0  0
   -4.6795    0.7267   -0.8511 H   0  0  0  0  0  0  0  0  0  0  0  0
   -4.9432   -1.5175   -0.4156 H   0  0  0  0  0  0  0  0  0  0  0  0
   -3.3857   -3.1453    0.0178 H   0  0  0  0  0  0  0  0  0  0  0  0
   -1.1747   -3.3040   -0.2862 H   0  0  0  0  0  0  0  0  0  0  0  0
    0.2162   -2.3915   -1.8480 H   0  0  0  0  0  0  0  0  0  0  0  0
    0.3077   -0.2633   -2.8096 H   0  0  0  0  0  0  0  0  0  0  0  0
   -0.9175    1.6528   -2.2711 H   0  0  0  0  0  0  0  0  0  0  0  0
  1  9  1  0  0  0  0
  1  2  1  0  0  0  0
  2 10  1  0  0  0  0
  2  3  1  0  0  0  0
  3  4  2  0  0  0  0
  3 11  1  0  0  0  0
  4 12  1  0  0  0  0
  5  4  1  0  0  0  0
  5 13  1  0  0  0  0
  6  5  1  0  0  0  0
  7  8  1  0  0  0  0
  7  6  1  0  0  0  0
  8  1  2  0  0  0  0
 14  6  1  0  0  0  0
 15  7  1  0  0  0  0
 16  8  1  0  0  0  0
M  END
