6
 OpenBabel05122313113D

 25 25  0  0  1  0  0  0  0  0999 V2000
   -2.1161    3.2094    0.4817 O   0  0  0  0  0  0  0  0  0  0  0  0
   -3.6481   -0.5639    1.9775 O   0  0  0  0  0  0  0  0  0  0  0  0
   -4.7003   -0.4421   -0.7173 O   0  0  0  0  0  0  0  0  0  0  0  0
   -3.2589    1.3872   -0.3187 N   0  0  0  0  0  0  0  0  0  0  0  0
   -2.2587    1.8566    0.3388 C   0  0  0  0  0  0  0  0  0  0  0  0
   -1.2057    1.0839    1.0276 C   0  0  0  0  0  3  0  0  0  0  0  0
   -1.4670   -0.3483    1.1635 C   0  0  0  0  0  3  0  0  0  0  0  0
   -2.8714   -0.8039    0.8060 C   0  0  2  0  0  0  0  0  0  0  0  0
   -2.9200   -1.8957    0.5688 H   0  0  0  0  0  0  0  0  0  0  0  0
   -3.3668   -0.0409   -0.4403 C   0  0  1  0  0  0  0  0  0  0  0  0
   -2.7310   -0.3668   -1.3004 H   0  0  0  0  0  0  0  0  0  0  0  0
   -3.1431    4.0065   -0.1043 C   0  0  0  0  0  0  0  0  0  0  0  0
   -4.1353    3.7490    0.3201 H   0  0  0  0  0  0  0  0  0  0  0  0
   -3.1977    3.8475   -1.2015 H   0  0  0  0  0  0  0  0  0  0  0  0
   -2.8829    5.0569    0.1249 H   0  0  0  0  0  0  0  0  0  0  0  0
   -5.1806    0.0702   -1.9419 C   0  0  0  0  0  0  0  0  0  0  0  0
   -4.5557   -0.2725   -2.8035 H   0  0  0  0  0  0  0  0  0  0  0  0
   -5.1835    1.1824   -1.9479 H   0  0  0  0  0  0  0  0  0  0  0  0
   -6.2148   -0.3033   -2.0759 H   0  0  0  0  0  0  0  0  0  0  0  0
   -4.8610   -1.2818    2.0762 C   0  0  0  0  0  0  0  0  0  0  0  0
   -4.7112   -2.3723    1.8738 H   0  0  0  0  0  0  0  0  0  0  0  0
   -5.6336   -0.9113    1.3708 H   0  0  0  0  0  0  0  0  0  0  0  0
   -5.2212   -1.1674    3.1189 H   0  0  0  0  0  0  0  0  0  0  0  0
   -0.7170    1.6255    1.8560 H   0  0  0  0  0  0  0  0  0  0  0  0
   -1.1932   -0.7743    2.1451 H   0  0  0  0  0  0  0  0  0  0  0  0
  2 20  1  0  0  0  0
  3 10  1  0  0  0  0
  4  5  2  0  0  0  0
  5  1  1  0  0  0  0
  5  6  1  0  0  0  0
  6  7  1  0  0  0  0
  6 24  1  0  0  0  0
  7 25  1  0  0  0  0
  8  9  1  6  0  0  0
  8  7  1  0  0  0  0
  8  2  1  0  0  0  0
 10 11  1  6  0  0  0
 10  4  1  0  0  0  0
 10  8  1  0  0  0  0
 12 15  1  0  0  0  0
 12 13  1  0  0  0  0
 12  1  1  0  0  0  0
 14 12  1  0  0  0  0
 16  3  1  0  0  0  0
 17 16  1  0  0  0  0
 18 16  1  0  0  0  0
 19 16  1  0  0  0  0
 20 23  1  0  0  0  0
 21 20  1  0  0  0  0
 22 20  1  0  0  0  0
M  END
