1
 OpenBabel05122313113D

 52 51  0  0  1  0  0  0  0  0999 V2000
   -1.9038   -0.0107    0.9564 C   0  0  0  0  0  2  0  0  0  0  0  0
   -0.7158    0.9157    0.6765 C   0  0  1  0  0  0  0  0  0  0  0  0
   -0.6044    1.6008    1.5451 H   0  0  0  0  0  0  0  0  0  0  0  0
    0.5827    0.0903    0.5758 C   0  0  2  0  0  0  0  0  0  0  0  0
    0.7374   -0.4117    1.5502 H   0  0  0  0  0  0  0  0  0  0  0  0
    1.8062    0.9444    0.2217 C   0  0  2  0  0  0  0  0  0  0  0  0
    1.6461    1.4562   -0.7489 H   0  0  0  0  0  0  0  0  0  0  0  0
    3.0625    0.0879    0.0916 C   0  0  1  0  0  0  0  0  0  0  0  0
    2.9408   -0.5511   -0.8050 H   0  0  0  0  0  0  0  0  0  0  0  0
    4.3428    0.9009   -0.0610 C   0  0  0  0  0  0  0  0  0  0  0  0
    4.2254    1.6211   -0.8952 H   0  0  0  0  0  0  0  0  0  0  0  0
    4.5740    1.4385    0.8776 H   0  0  0  0  0  0  0  0  0  0  0  0
   -1.6558   -0.4470    2.1778 O   0  0  0  0  0  0  0  0  0  0  0  0
   -2.3385   -1.5428    2.7982 C   0  0  0  0  0  0  0  0  0  0  0  0
   -2.0983   -1.4748    3.8741 H   0  0  0  0  0  0  0  0  0  0  0  0
   -1.9313   -2.4828    2.3800 H   0  0  0  0  0  0  0  0  0  0  0  0
   -3.4290   -1.4803    2.6395 H   0  0  0  0  0  0  0  0  0  0  0  0
   -0.8744    1.7056   -0.4971 O   0  0  0  0  0  0  0  0  0  0  0  0
   -0.9454    3.0692   -0.3217 C   0  0  0  0  0  0  0  0  0  0  0  0
   -0.9503    3.5949    0.7743 O   0  0  0  0  0  0  0  0  0  0  0  0
   -0.9541    3.7764   -1.6440 C   0  0  0  0  0  0  0  0  0  0  0  0
   -1.3078    3.1202   -2.4585 H   0  0  0  0  0  0  0  0  0  0  0  0
    0.0940    4.0770   -1.8541 H   0  0  0  0  0  0  0  0  0  0  0  0
   -1.5702    4.6901   -1.5698 H   0  0  0  0  0  0  0  0  0  0  0  0
    0.4857   -0.9069   -0.4556 O   0  0  0  0  0  0  0  0  0  0  0  0
    0.3485   -2.2138   -0.0730 C   0  0  0  0  0  0  0  0  0  0  0  0
    0.2354   -2.5605    1.0899 O   0  0  0  0  0  0  0  0  0  0  0  0
    0.4088   -3.1262   -1.2630 C   0  0  0  0  0  0  0  0  0  0  0  0
    0.0673   -2.6186   -2.1827 H   0  0  0  0  0  0  0  0  0  0  0  0
   -0.1837   -4.0359   -1.0608 H   0  0  0  0  0  0  0  0  0  0  0  0
    1.4733   -3.4135   -1.3948 H   0  0  0  0  0  0  0  0  0  0  0  0
    1.9375    1.9393    1.2542 O   0  0  0  0  0  0  0  0  0  0  0  0
    2.0905    3.2407    0.8439 C   0  0  0  0  0  0  0  0  0  0  0  0
    2.2068    3.5608   -0.3237 O   0  0  0  0  0  0  0  0  0  0  0  0
    2.0401    4.1800    2.0146 C   0  0  0  0  0  0  0  0  0  0  0  0
    2.3804    3.6946    2.9469 H   0  0  0  0  0  0  0  0  0  0  0  0
    0.9771    4.4754    2.1369 H   0  0  0  0  0  0  0  0  0  0  0  0
    2.6317    5.0857    1.7925 H   0  0  0  0  0  0  0  0  0  0  0  0
    3.1795   -0.7669    1.2509 O   0  0  0  0  0  0  0  0  0  0  0  0
    3.4335   -2.0879    1.0257 C   0  0  0  0  0  0  0  0  0  0  0  0
    3.6068   -2.5638   -0.0830 O   0  0  0  0  0  0  0  0  0  0  0  0
    3.3955   -2.8661    2.3124 C   0  0  0  0  0  0  0  0  0  0  0  0
    3.7281   -2.2529    3.1695 H   0  0  0  0  0  0  0  0  0  0  0  0
    4.0054   -3.7812    2.2138 H   0  0  0  0  0  0  0  0  0  0  0  0
    2.3385   -3.1607    2.4815 H   0  0  0  0  0  0  0  0  0  0  0  0
    5.4515    0.0234   -0.2912 O   0  0  0  0  0  0  0  0  0  0  0  0
    5.5466   -0.4766   -1.5632 C   0  0  0  0  0  0  0  0  0  0  0  0
    4.8348   -0.1058   -2.4752 O   0  0  0  0  0  0  0  0  0  0  0  0
    6.5923   -1.5560   -1.6323 C   0  0  0  0  0  0  0  0  0  0  0  0
    7.4415   -1.3450   -0.9565 H   0  0  0  0  0  0  0  0  0  0  0  0
    6.9327   -1.6823   -2.6749 H   0  0  0  0  0  0  0  0  0  0  0  0
    6.1111   -2.4978   -1.2951 H   0  0  0  0  0  0  0  0  0  0  0  0
  1 13  1  0  0  0  0
  2  1  1  0  0  0  0
  2  3  1  1  0  0  0
  4  2  1  0  0  0  0
  4  5  1  1  0  0  0
  6  7  1  6  0  0  0
  6  4  1  0  0  0  0
  6 32  1  0  0  0  0
  8  9  1  6  0  0  0
  8  6  1  0  0  0  0
  8 39  1  0  0  0  0
 10  8  1  0  0  0  0
 10 12  1  0  0  0  0
 11 10  1  0  0  0  0
 13 14  1  0  0  0  0
 14 15  1  0  0  0  0
 16 14  1  0  0  0  0
 17 14  1  0  0  0  0
 18 19  1  0  0  0  0
 18  2  1  0  0  0  0
 19 20  2  0  0  0  0
 21 24  1  0  0  0  0
 21 19  1  0  0  0  0
 22 21  1  0  0  0  0
 23 21  1  0  0  0  0
 25 26  1  0  0  0  0
 25  4  1  0  0  0  0
 26 27  2  0  0  0  0
 28 30  1  0  0  0  0
 28 26  1  0  0  0  0
 29 28  1  0  0  0  0
 31 28  1  0  0  0  0
 33 32  1  0  0  0  0
 33 35  1  0  0  0  0
 34 33  2  0  0  0  0
 35 37  1  0  0  0  0
 35 36  1  0  0  0  0
 38 35  1  0  0  0  0
 40 39  1  0  0  0  0
 40 42  1  0  0  0  0
 41 40  2  0  0  0  0
 42 45  1  0  0  0  0
 42 43  1  0  0  0  0
 44 42  1  0  0  0  0
 46 10  1  0  0  0  0
 47 46  1  0  0  0  0
 48 47  2  0  0  0  0
 49 47  1  0  0  0  0
 49 52  1  0  0  0  0
 49 50  1  0  0  0  0
 51 49  1  0  0  0  0
M  END
