6
 OpenBabel05122313113D

 34 35  0  0  0  0  0  0  0  0999 V2000
    4.7013    1.1612   -0.7212 S   0  0  0  0  0  0  0  0  0  0  0  0
    4.4940   -0.5096   -1.1324 N   0  0  0  0  0  0  0  0  0  0  0  0
    5.8473    1.2390    0.2064 O   0  0  0  0  0  0  0  0  0  0  0  0
    4.6899    1.8878   -2.0068 O   0  0  0  0  0  0  0  0  0  0  0  0
    4.3204   -1.4114   -0.0397 C   0  0  0  0  0  0  0  0  0  0  0  0
    1.1846   -0.3673   -2.3690 C   0  0  0  0  0  1  0  0  0  0  0  0
    3.8502   -0.7759   -2.4373 C   0  0  0  0  0  0  0  0  0  0  0  0
    4.3704   -0.1399   -3.1812 H   0  0  0  0  0  0  0  0  0  0  0  0
    4.0979   -1.8308   -2.6856 H   0  0  0  0  0  0  0  0  0  0  0  0
    3.1125   -2.1171    0.1584 C   0  0  0  0  0  0  0  0  0  0  0  0
    2.2790   -1.9707   -0.5420 H   0  0  0  0  0  0  0  0  0  0  0  0
    3.2398    1.6135    0.2203 C   0  0  0  0  0  0  0  0  0  0  0  0
    2.4026   -0.5554   -2.4808 C   0  0  0  0  0  2  0  0  0  0  0  0
    5.3846   -1.5940    0.8727 C   0  0  0  0  0  0  0  0  0  0  0  0
    6.3224   -1.0499    0.7034 H   0  0  0  0  0  0  0  0  0  0  0  0
    5.2250   -2.4389    1.9786 C   0  0  0  0  0  0  0  0  0  0  0  0
    6.0605   -2.5669    2.6839 H   0  0  0  0  0  0  0  0  0  0  0  0
    4.0218   -3.1370    2.1777 C   0  0  0  0  0  0  0  0  0  0  0  0
    3.9061   -3.8083    3.0423 H   0  0  0  0  0  0  0  0  0  0  0  0
    3.1944    1.3252    1.5956 C   0  0  0  0  0  0  0  0  0  0  0  0
    4.0559    0.8481    2.0832 H   0  0  0  0  0  0  0  0  0  0  0  0
    2.1686    2.2412   -0.4278 C   0  0  0  0  0  0  0  0  0  0  0  0
    2.2297    2.4435   -1.5056 H   0  0  0  0  0  0  0  0  0  0  0  0
    2.9748   -2.9798    1.2560 C   0  0  0  0  0  0  0  0  0  0  0  0
    2.0267   -3.5221    1.3961 H   0  0  0  0  0  0  0  0  0  0  0  0
    2.0519    1.6774    2.3223 C   0  0  0  0  0  0  0  0  0  0  0  0
    2.0108    1.4606    3.4017 H   0  0  0  0  0  0  0  0  0  0  0  0
    0.9594    2.3258    1.7035 C   0  0  0  0  0  0  0  0  0  0  0  0
    1.0378    2.5962    0.3219 C   0  0  0  0  0  0  0  0  0  0  0  0
    0.1946    3.0994   -0.1758 H   0  0  0  0  0  0  0  0  0  0  0  0
   -0.2549    2.7076    2.5085 C   0  0  0  0  0  0  0  0  0  0  0  0
    0.0294    3.2614    3.4265 H   0  0  0  0  0  0  0  0  0  0  0  0
   -0.8112    1.8039    2.8363 H   0  0  0  0  0  0  0  0  0  0  0  0
   -0.9552    3.3348    1.9255 H   0  0  0  0  0  0  0  0  0  0  0  0
  1  3  2  0  0  0  0
  1 12  1  0  0  0  0
  2  1  1  0  0  0  0
  2  5  1  0  0  0  0
  4  1  2  0  0  0  0
  5 10  2  0  0  0  0
  5 14  1  0  0  0  0
  7  2  1  0  0  0  0
  8  7  1  0  0  0  0
  9  7  1  0  0  0  0
 10 24  1  0  0  0  0
 11 10  1  0  0  0  0
 12 20  1  0  0  0  0
 13  7  1  0  0  0  0
 13  6  1  0  0  0  0
 14 16  2  0  0  0  0
 15 14  1  0  0  0  0
 16 18  1  0  0  0  0
 16 17  1  0  0  0  0
 18 19  1  0  0  0  0
 20 21  1  0  0  0  0
 20 26  2  0  0  0  0
 22 12  2  0  0  0  0
 22 29  1  0  0  0  0
 23 22  1  0  0  0  0
 24 25  1  0  0  0  0
 24 18  2  0  0  0  0
 26 27  1  0  0  0  0
 28 26  1  0  0  0  0
 28 31  1  0  0  0  0
 29 28  2  0  0  0  0
 30 29  1  0  0  0  0
 31 33  1  0  0  0  0
 31 32  1  0  0  0  0
 34 31  1  0  0  0  0
M  END
