4
 OpenBabel05122313113D

 26 28  0  0  0  0  0  0  0  0999 V2000
    3.7531   -0.5914   -0.0160 N   0  0  0  0  0  0  0  0  0  0  0  0
    3.7096    0.7754   -0.0021 N   0  0  0  0  0  0  0  0  0  0  0  0
    5.0133   -1.0920   -0.0176 N   0  0  0  0  0  0  0  0  0  0  0  0
    1.5894    0.0092   -0.0124 C   0  0  0  0  0  3  0  0  0  0  0  0
    2.4881   -1.0802   -0.0224 C   0  0  0  0  0  3  0  0  0  0  0  0
    2.3256   -2.1630   -0.0328 H   0  0  0  0  0  0  0  0  0  0  0  0
    2.4058    1.1761    0.0009 C   0  0  0  0  0  0  0  0  0  0  0  0
    2.0362    2.6175    0.0157 C   0  0  0  0  0  0  0  0  0  0  0  0
    2.4244    3.1486   -0.8790 H   0  0  0  0  0  0  0  0  0  0  0  0
    2.4390    3.1343    0.9122 H   0  0  0  0  0  0  0  0  0  0  0  0
    0.9350    2.7091    0.0264 H   0  0  0  0  0  0  0  0  0  0  0  0
    5.0738    1.2691    0.0062 C   0  0  0  0  0  0  0  0  0  0  0  0
    5.2898    1.8702    0.9149 H   0  0  0  0  0  0  0  0  0  0  0  0
    5.2944    1.8878   -0.8895 H   0  0  0  0  0  0  0  0  0  0  0  0
    5.8315   -0.0644   -0.0050 C   0  0  0  0  0  0  0  0  0  0  0  0
    7.2792   -0.1877   -0.0019 C   0  0  0  0  0  0  0  0  0  0  0  0
    8.1002    0.9658    0.0114 C   0  0  0  0  0  0  0  0  0  0  0  0
    7.6542    1.9722    0.0193 H   0  0  0  0  0  0  0  0  0  0  0  0
    9.4937    0.8384    0.0147 C   0  0  0  0  0  0  0  0  0  0  0  0
   10.1256    1.7383    0.0250 H   0  0  0  0  0  0  0  0  0  0  0  0
   10.0820   -0.4370    0.0048 C   0  0  0  0  0  0  0  0  0  0  0  0
   11.1777   -0.5353    0.0074 H   0  0  0  0  0  0  0  0  0  0  0  0
    9.2734   -1.5888   -0.0084 C   0  0  0  0  0  0  0  0  0  0  0  0
    9.7368   -2.5862   -0.0161 H   0  0  0  0  0  0  0  0  0  0  0  0
    7.8822   -1.4709   -0.0118 C   0  0  0  0  0  0  0  0  0  0  0  0
    7.2401   -2.3631   -0.0221 H   0  0  0  0  0  0  0  0  0  0  0  0
  1  2  1  0  0  0  0
  2  7  1  0  0  0  0
  2 12  1  0  0  0  0
  3  1  1  0  0  0  0
  3 15  2  0  0  0  0
  4  7  2  0  0  0  0
  5  1  1  0  0  0  0
  5  4  1  0  0  0  0
  6  5  1  0  0  0  0
  7  8  1  0  0  0  0
  8 11  1  0  0  0  0
  8 10  1  0  0  0  0
  9  8  1  0  0  0  0
 12 13  1  0  0  0  0
 14 12  1  0  0  0  0
 15 16  1  0  0  0  0
 15 12  1  0  0  0  0
 16 17  1  0  0  0  0
 17 19  2  0  0  0  0
 17 18  1  0  0  0  0
 19 20  1  0  0  0  0
 21 22  1  0  0  0  0
 21 19  1  0  0  0  0
 23 21  2  0  0  0  0
 24 23  1  0  0  0  0
 25 23  1  0  0  0  0
 25 16  2  0  0  0  0
 26 25  1  0  0  0  0
M  END
