5
 OpenBabel05122313113D

 22 24  0  0  0  0  0  0  0  0999 V2000
    1.7543    1.4367   -0.4025 N   0  0  0  0  0  0  0  0  0  0  0  0
    1.7544   -1.4369   -0.4018 N   0  0  0  0  0  0  0  0  0  0  0  0
   -0.6390   -1.3427   -0.8994 C   0  0  0  0  0  3  0  0  0  0  0  0
   -1.5598   -0.7116   -1.8117 C   0  0  0  0  0  3  0  0  0  0  0  0
   -1.5598    0.7104   -1.8121 C   0  0  0  0  0  3  0  0  0  0  0  0
   -0.6391    1.3421   -0.9001 C   0  0  0  0  0  3  0  0  0  0  0  0
    0.6774    0.7242   -0.6582 C   0  0  0  0  0  0  0  0  0  0  0  0
    0.6775   -0.7246   -0.6579 C   0  0  0  0  0  0  0  0  0  0  0  0
    2.9001   -0.7215   -0.1354 C   0  0  0  0  0  0  0  0  0  0  0  0
    2.9000    0.7214   -0.1357 C   0  0  0  0  0  0  0  0  0  0  0  0
    4.1039    1.4144    0.1543 C   0  0  0  0  0  0  0  0  0  0  0  0
    5.2716    0.7092    0.4297 C   0  0  0  0  0  0  0  0  0  0  0  0
    5.2716   -0.7088    0.4300 C   0  0  0  0  0  0  0  0  0  0  0  0
    4.1040   -1.4142    0.1549 C   0  0  0  0  0  0  0  0  0  0  0  0
    4.0726    2.5139    0.1501 H   0  0  0  0  0  0  0  0  0  0  0  0
    6.2024    1.2537    0.6498 H   0  0  0  0  0  0  0  0  0  0  0  0
    6.2025   -1.2531    0.6504 H   0  0  0  0  0  0  0  0  0  0  0  0
    4.0728   -2.5137    0.1512 H   0  0  0  0  0  0  0  0  0  0  0  0
   -0.6960   -2.4315   -0.7515 H   0  0  0  0  0  0  0  0  0  0  0  0
   -2.2743   -1.2875   -2.4180 H   0  0  0  0  0  0  0  0  0  0  0  0
   -2.2743    1.2859   -2.4188 H   0  0  0  0  0  0  0  0  0  0  0  0
   -0.6961    2.4309   -0.7528 H   0  0  0  0  0  0  0  0  0  0  0  0
  1 10  1  0  0  0  0
  2  9  1  0  0  0  0
  3 19  1  0  0  0  0
  3  8  1  0  0  0  0
  4  3  1  0  0  0  0
  5  4  1  0  0  0  0
  5  6  1  0  0  0  0
  6 22  1  0  0  0  0
  6  7  1  0  0  0  0
  7  8  1  0  0  0  0
  7  1  2  0  0  0  0
  8  2  2  0  0  0  0
  9 14  1  0  0  0  0
 10  9  2  0  0  0  0
 10 11  1  0  0  0  0
 11 12  2  0  0  0  0
 12 13  1  0  0  0  0
 12 16  1  0  0  0  0
 13 17  1  0  0  0  0
 14 13  2  0  0  0  0
 15 11  1  0  0  0  0
 18 14  1  0  0  0  0
 20  4  1  0  0  0  0
 21  5  1  0  0  0  0
M  END
