5
 OpenBabel05122313113D

 32 32  0  0  0  0  0  0  0  0999 V2000
   -4.5395    0.3894   -0.3568 Si  0  0  0  0  0  0  0  0  0  0  0  0
    3.8982    0.4805   -1.8681 O   0  0  0  0  0  0  0  0  0  0  0  0
   -0.6558   -3.1849    0.7205 O   0  0  0  0  0  0  0  0  0  0  0  0
    0.4428   -1.4513   -0.4770 C   0  0  0  0  0  0  0  0  0  0  0  0
    0.3849   -0.3294   -1.3584 C   0  0  0  0  0  3  0  0  0  0  0  0
    1.5648    0.3243   -1.7841 C   0  0  0  0  0  3  0  0  0  0  0  0
    2.8528   -0.1668   -1.3832 C   0  0  0  0  0  0  0  0  0  0  0  0
    2.9131   -1.2261   -0.4199 C   0  0  0  0  0  0  0  0  0  0  0  0
    1.7181   -1.8754   -0.0115 C   0  0  0  0  0  0  0  0  0  0  0  0
   -0.7908   -2.1393    0.0965 C   0  0  0  0  0  0  0  0  0  0  0  0
   -2.0274   -1.4382   -0.1084 C   0  0  0  0  0  0  0  0  0  0  0  0
   -3.0348   -0.7310   -0.2388 C   0  0  0  0  0  0  0  0  0  0  0  0
   -4.0483    1.8020   -1.5059 C   0  0  0  0  0  0  0  0  0  0  0  0
   -5.9577   -0.6378   -1.0387 C   0  0  0  0  0  0  0  0  0  0  0  0
   -4.8480    0.9970    1.3988 C   0  0  0  0  0  0  0  0  0  0  0  0
    5.2302    0.1473   -1.4330 C   0  0  0  0  0  0  0  0  0  0  0  0
   -0.6006    0.0502   -1.6708 H   0  0  0  0  0  0  0  0  0  0  0  0
    1.5268    1.2054   -2.4397 H   0  0  0  0  0  0  0  0  0  0  0  0
    3.8744   -1.5536   -0.0039 H   0  0  0  0  0  0  0  0  0  0  0  0
    1.7428   -2.7063    0.7116 H   0  0  0  0  0  0  0  0  0  0  0  0
   -3.1745    2.3556   -1.1062 H   0  0  0  0  0  0  0  0  0  0  0  0
   -3.8046    1.4349   -2.5232 H   0  0  0  0  0  0  0  0  0  0  0  0
   -4.8879    2.5214   -1.6001 H   0  0  0  0  0  0  0  0  0  0  0  0
   -6.8678   -0.0076   -1.1159 H   0  0  0  0  0  0  0  0  0  0  0  0
   -6.1876   -1.4941   -0.3741 H   0  0  0  0  0  0  0  0  0  0  0  0
   -5.7266   -1.0309   -2.0486 H   0  0  0  0  0  0  0  0  0  0  0  0
   -5.0762    0.1555    2.0825 H   0  0  0  0  0  0  0  0  0  0  0  0
   -5.7147    1.6900    1.4034 H   0  0  0  0  0  0  0  0  0  0  0  0
   -3.9684    1.5437    1.7935 H   0  0  0  0  0  0  0  0  0  0  0  0
    5.9025    0.8043   -2.0105 H   0  0  0  0  0  0  0  0  0  0  0  0
    5.4641   -0.9131   -1.6551 H   0  0  0  0  0  0  0  0  0  0  0  0
    5.3478    0.3567   -0.3500 H   0  0  0  0  0  0  0  0  0  0  0  0
  1 12  1  0  0  0  0
  1 15  1  0  0  0  0
  2 16  1  0  0  0  0
  2  7  1  0  0  0  0
  4  9  2  0  0  0  0
  4 10  1  0  0  0  0
  5  4  1  0  0  0  0
  6  7  1  0  0  0  0
  6  5  1  0  0  0  0
  7  8  2  0  0  0  0
  8  9  1  0  0  0  0
  8 19  1  0  0  0  0
  9 20  1  0  0  0  0
 10  3  2  0  0  0  0
 11 10  1  0  0  0  0
 12 11  3  0  0  0  0
 13 21  1  0  0  0  0
 13  1  1  0  0  0  0
 14 25  1  0  0  0  0
 14  1  1  0  0  0  0
 15 28  1  0  0  0  0
 15 29  1  0  0  0  0
 15 27  1  0  0  0  0
 16 32  1  0  0  0  0
 17  5  1  0  0  0  0
 18  6  1  0  0  0  0
 22 13  1  0  0  0  0
 23 13  1  0  0  0  0
 24 14  1  0  0  0  0
 26 14  1  0  0  0  0
 30 16  1  0  0  0  0
 31 16  1  0  0  0  0
M  END
