8
 OpenBabel05122313113D

 22 23  0  0  0  0  0  0  0  0999 V2000
   -2.6698   -1.0019   -1.5485 C   0  0  0  0  0  0  0  0  0  0  0  0
   -1.7539   -0.9522   -2.1523 H   0  0  0  0  0  0  0  0  0  0  0  0
   -4.6845   -1.2838   -0.8643 C   0  0  0  0  0  0  0  0  0  0  0  0
   -3.9358   -1.0150    0.2733 C   0  0  0  0  0  0  0  0  0  0  0  0
   -1.4682   -0.5178    0.6284 C   0  0  0  0  0  0  0  0  0  0  0  0
   -1.7970   -0.4811    1.6849 H   0  0  0  0  0  0  0  0  0  0  0  0
   -0.6872   -1.2888    0.4665 H   0  0  0  0  0  0  0  0  0  0  0  0
    0.4211    0.9122   -0.2518 C   0  0  0  0  0  2  0  0  0  0  0  0
   -0.6462    2.9253   -0.1536 C   0  0  0  0  0  0  0  0  0  0  0  0
   -1.5205    1.9829    0.3258 C   0  0  0  0  0  0  0  0  0  0  0  0
    1.6971    2.9541   -1.0234 C   0  0  0  0  0  0  0  0  0  0  0  0
    2.3486    2.2040   -1.5138 H   0  0  0  0  0  0  0  0  0  0  0  0
    2.2263    3.4811   -0.2041 H   0  0  0  0  0  0  0  0  0  0  0  0
    1.3687    3.6997   -1.7707 H   0  0  0  0  0  0  0  0  0  0  0  0
   -3.8940   -1.2679   -1.9752 N   0  0  0  0  0  0  0  0  0  0  0  0
   -2.6295   -0.8293   -0.1791 N   0  0  0  0  0  0  0  0  0  0  0  0
   -0.8582    0.7558    0.2519 N   0  0  0  0  0  0  0  0  0  0  0  0
    0.5269    2.2585   -0.5049 N   0  0  0  0  0  0  0  0  0  0  0  0
   -6.3770   -1.6007   -0.9121 Cl  0  0  0  0  0  0  0  0  0  0  0  0
   -4.3773   -0.9326    1.9275 Cl  0  0  0  0  0  0  0  0  0  0  0  0
   -0.8608    4.6084   -0.3160 Cl  0  0  0  0  0  0  0  0  0  0  0  0
   -3.0970    2.1924    0.9333 Cl  0  0  0  0  0  0  0  0  0  0  0  0
  1 16  1  0  0  0  0
  2  1  1  0  0  0  0
  3  4  2  0  0  0  0
  4 20  1  0  0  0  0
  5  6  1  0  0  0  0
  7  5  1  0  0  0  0
  8 17  1  0  0  0  0
  9 10  2  0  0  0  0
 10 22  1  0  0  0  0
 11 18  1  0  0  0  0
 11 13  1  0  0  0  0
 12 11  1  0  0  0  0
 14 11  1  0  0  0  0
 15  1  2  0  0  0  0
 15  3  1  0  0  0  0
 16  4  1  0  0  0  0
 16  5  1  0  0  0  0
 17 10  1  0  0  0  0
 17  5  1  0  0  0  0
 18  8  1  0  0  0  0
 18  9  1  0  0  0  0
 19  3  1  0  0  0  0
 21  9  1  0  0  0  0
M  END
