57
 OpenBabel05122313113D

 65 67  0  0  0  0  0  0  0  0999 V2000
    1.4964   -1.5943   -0.9480 N   0  0  0  0  0  0  0  0  0  0  0  0
   -0.0573   -0.9261   -2.2880 N   0  0  0  0  0  0  0  0  0  0  0  0
   -1.9598   -0.1457   -0.5681 N   0  0  0  0  0  0  0  0  0  0  0  0
   -2.1609    0.2579   -1.7650 C   0  0  0  0  0  0  0  0  0  0  0  0
   -0.1475   -2.3123   -2.2395 C   0  0  0  0  0  0  0  0  0  0  0  0
   -0.9008   -2.8724   -2.8011 H   0  0  0  0  0  0  0  0  0  0  0  0
    2.5088   -1.5593    0.0747 C   0  0  0  0  0  0  0  0  0  0  0  0
   -1.0899   -0.0570   -2.8105 C   0  0  0  0  0  0  0  0  0  0  0  0
   -1.5489   -0.5184   -3.7094 H   0  0  0  0  0  0  0  0  0  0  0  0
   -0.6162    0.8954   -3.1317 H   0  0  0  0  0  0  0  0  0  0  0  0
    3.8659   -1.4825   -0.2991 C   0  0  0  0  0  0  0  0  0  0  0  0
    2.0849   -1.5598    1.4228 C   0  0  0  0  0  0  0  0  0  0  0  0
   -2.8396    0.0843    0.5085 C   0  0  0  0  0  0  0  0  0  0  0  0
    0.8460   -2.7393   -1.3983 C   0  0  0  0  0  0  0  0  0  0  0  0
    1.1496   -3.7422   -1.0853 H   0  0  0  0  0  0  0  0  0  0  0  0
   -4.7448   -0.5785    1.8558 C   0  0  0  0  0  0  0  0  0  0  0  0
   -5.6098   -1.2327    2.0360 H   0  0  0  0  0  0  0  0  0  0  0  0
   -3.9480   -0.7860    0.7156 C   0  0  0  0  0  0  0  0  0  0  0  0
   -2.5152    1.1102    1.4381 C   0  0  0  0  0  0  0  0  0  0  0  0
   -4.1890   -1.9510   -0.2395 C   0  0  0  0  0  0  0  0  0  0  0  0
   -4.0225   -1.5736   -1.2726 H   0  0  0  0  0  0  0  0  0  0  0  0
    4.4498   -1.4263    2.0894 C   0  0  0  0  0  0  0  0  0  0  0  0
   -3.3398    1.0514   -2.2610 C   0  0  0  0  0  0  0  0  0  0  0  0
   -3.9049    0.4721   -3.0221 H   0  0  0  0  0  0  0  0  0  0  0  0
   -2.9997    1.9848   -2.7563 H   0  0  0  0  0  0  0  0  0  0  0  0
   -4.0206    1.3099   -1.4291 H   0  0  0  0  0  0  0  0  0  0  0  0
    4.8200   -1.4237    0.7318 C   0  0  0  0  0  0  0  0  0  0  0  0
    5.8864   -1.3620    0.4623 H   0  0  0  0  0  0  0  0  0  0  0  0
    3.0810   -1.4959    2.4120 C   0  0  0  0  0  0  0  0  0  0  0  0
    2.7738   -1.4884    3.4700 H   0  0  0  0  0  0  0  0  0  0  0  0
   -3.1481   -3.0606    0.0112 C   0  0  0  0  0  0  0  0  0  0  0  0
   -2.1163   -2.6643   -0.0660 H   0  0  0  0  0  0  0  0  0  0  0  0
   -3.2606   -3.8872   -0.7217 H   0  0  0  0  0  0  0  0  0  0  0  0
   -3.2775   -3.4849    1.0282 H   0  0  0  0  0  0  0  0  0  0  0  0
    0.6208   -1.6068    1.7762 C   0  0  0  0  0  0  0  0  0  0  0  0
    0.4667   -1.4183    2.8548 H   0  0  0  0  0  0  0  0  0  0  0  0
    0.1716   -2.5945    1.5386 H   0  0  0  0  0  0  0  0  0  0  0  0
    0.0378   -0.8578    1.2026 H   0  0  0  0  0  0  0  0  0  0  0  0
   -1.7386    3.2993    0.4368 C   0  0  0  0  0  0  0  0  0  0  0  0
   -2.2814    3.0663   -0.5014 H   0  0  0  0  0  0  0  0  0  0  0  0
   -0.8373    3.8913    0.1771 H   0  0  0  0  0  0  0  0  0  0  0  0
   -2.4121    3.9194    1.0650 H   0  0  0  0  0  0  0  0  0  0  0  0
   -1.3230    2.0196    1.1852 C   0  0  0  0  0  0  0  0  0  0  0  0
   -0.6361    1.4634    0.5063 H   0  0  0  0  0  0  0  0  0  0  0  0
    4.2659   -1.4171   -1.7494 C   0  0  0  0  0  0  0  0  0  0  0  0
    5.3615   -1.5124   -1.8663 H   0  0  0  0  0  0  0  0  0  0  0  0
    3.9571   -0.4463   -2.1932 H   0  0  0  0  0  0  0  0  0  0  0  0
    3.7788   -2.2109   -2.3514 H   0  0  0  0  0  0  0  0  0  0  0  0
   -4.4553    0.4436    2.7707 C   0  0  0  0  0  0  0  0  0  0  0  0
   -5.0954    0.5884    3.6541 H   0  0  0  0  0  0  0  0  0  0  0  0
   -3.3465    1.2725    2.5609 C   0  0  0  0  0  0  0  0  0  0  0  0
   -3.1138    2.0674    3.2852 H   0  0  0  0  0  0  0  0  0  0  0  0
   -5.6134   -2.5139   -0.1955 C   0  0  0  0  0  0  0  0  0  0  0  0
   -5.8299   -3.0073    0.7744 H   0  0  0  0  0  0  0  0  0  0  0  0
   -5.7485   -3.2804   -0.9852 H   0  0  0  0  0  0  0  0  0  0  0  0
   -6.3743   -1.7228   -0.3505 H   0  0  0  0  0  0  0  0  0  0  0  0
    0.9428   -0.4639   -1.4777 C   0  0  0  0  0  2  0  0  0  0  0  0
    5.4904   -1.3114    3.1745 C   0  0  0  0  0  0  0  0  0  0  0  0
    5.1951   -1.8687    4.0853 H   0  0  0  0  0  0  0  0  0  0  0  0
    5.6289   -0.2499    3.4726 H   0  0  0  0  0  0  0  0  0  0  0  0
    6.4760   -1.6888    2.8390 H   0  0  0  0  0  0  0  0  0  0  0  0
   -0.5173    2.3635    2.4436 C   0  0  0  0  0  0  0  0  0  0  0  0
   -1.0859    3.0169    3.1380 H   0  0  0  0  0  0  0  0  0  0  0  0
    0.4021    2.9070    2.1456 H   0  0  0  0  0  0  0  0  0  0  0  0
   -0.2214    1.4499    2.9984 H   0  0  0  0  0  0  0  0  0  0  0  0
  1  7  1  0  0  0  0
  2  5  1  0  0  0  0
  2 57  1  0  0  0  0
  3 13  1  0  0  0  0
  4  3  2  0  0  0  0
  5 14  2  0  0  0  0
  6  5  1  0  0  0  0
  7 12  1  0  0  0  0
  8  2  1  0  0  0  0
  8  4  1  0  0  0  0
  9  8  1  0  0  0  0
 10  8  1  0  0  0  0
 11  7  2  0  0  0  0
 11 27  1  0  0  0  0
 12 35  1  0  0  0  0
 12 29  2  0  0  0  0
 13 18  2  0  0  0  0
 13 19  1  0  0  0  0
 14 15  1  0  0  0  0
 14  1  1  0  0  0  0
 16 17  1  0  0  0  0
 16 49  2  0  0  0  0
 18 16  1  0  0  0  0
 19 51  2  0  0  0  0
 20 53  1  0  0  0  0
 20 31  1  0  0  0  0
 20 18  1  0  0  0  0
 21 20  1  0  0  0  0
 22 29  1  0  0  0  0
 22 58  1  0  0  0  0
 23  4  1  0  0  0  0
 23 26  1  0  0  0  0
 24 23  1  0  0  0  0
 25 23  1  0  0  0  0
 27 22  2  0  0  0  0
 28 27  1  0  0  0  0
 29 30  1  0  0  0  0
 31 34  1  0  0  0  0
 32 31  1  0  0  0  0
 33 31  1  0  0  0  0
 35 36  1  0  0  0  0
 37 35  1  0  0  0  0
 38 35  1  0  0  0  0
 39 42  1  0  0  0  0
 39 43  1  0  0  0  0
 40 39  1  0  0  0  0
 41 39  1  0  0  0  0
 43 19  1  0  0  0  0
 43 62  1  0  0  0  0
 44 43  1  0  0  0  0
 45 11  1  0  0  0  0
 46 45  1  0  0  0  0
 47 45  1  0  0  0  0
 48 45  1  0  0  0  0
 49 50  1  0  0  0  0
 51 49  1  0  0  0  0
 51 52  1  0  0  0  0
 53 54  1  0  0  0  0
 55 53  1  0  0  0  0
 56 53  1  0  0  0  0
 57  1  1  0  0  0  0
 58 60  1  0  0  0  0
 58 59  1  0  0  0  0
 61 58  1  0  0  0  0
 62 65  1  0  0  0  0
 62 63  1  0  0  0  0
 64 62  1  0  0  0  0
M  END
