13
 OpenBabel05122313113D

 34 36  0  0  0  0  0  0  0  0999 V2000
    0.4267   -3.1751   -0.3772 C   0  0  0  0  0  0  0  0  0  0  0  0
    1.0785   -3.0987   -1.2703 H   0  0  0  0  0  0  0  0  0  0  0  0
   -0.1751   -4.1013   -0.4384 H   0  0  0  0  0  0  0  0  0  0  0  0
    1.0482   -3.1774    0.5378 H   0  0  0  0  0  0  0  0  0  0  0  0
   -0.4982   -2.0444   -0.2791 N   0  0  0  0  0  0  0  0  0  0  0  0
   -1.2585    2.5015    0.2748 C   0  0  0  0  0  0  0  0  0  0  0  0
   -0.7102    1.3518    1.0830 C   0  0  0  0  0  0  0  0  0  0  0  0
    0.4099    1.3212    1.0241 H   0  0  0  0  0  0  0  0  0  0  0  0
   -0.9513    1.4488    2.1614 H   0  0  0  0  0  0  0  0  0  0  0  0
   -1.9724   -2.1384   -1.2253 S   0  0  0  0  0  0  0  0  0  0  0  0
   -2.2956   -3.5580   -1.4498 O   0  0  0  0  0  0  0  0  0  0  0  0
   -1.8063   -1.2100   -2.3637 O   0  0  0  0  0  0  0  0  0  0  0  0
   -0.1242   -0.8399    0.2356 C   0  0  0  0  0  2  0  0  0  0  0  0
   -1.1279    0.0318    0.5938 N   0  0  0  0  0  0  0  0  0  0  0  0
   -3.0226   -1.4066   -0.0190 C   0  0  0  0  0  0  0  0  0  0  0  0
   -4.3453   -1.8467    0.1280 C   0  0  0  0  0  0  0  0  0  0  0  0
   -4.6806   -2.7265   -0.4402 H   0  0  0  0  0  0  0  0  0  0  0  0
   -2.4935   -0.3075    0.6969 C   0  0  0  0  0  0  0  0  0  0  0  0
   -1.7016    2.3306   -1.0530 C   0  0  0  0  0  0  0  0  0  0  0  0
   -1.7134    1.3271   -1.5068 H   0  0  0  0  0  0  0  0  0  0  0  0
   -2.1393    3.4349   -1.8002 C   0  0  0  0  0  0  0  0  0  0  0  0
   -2.4848    3.2850   -2.8344 H   0  0  0  0  0  0  0  0  0  0  0  0
   -2.1398    4.7199   -1.2360 C   0  0  0  0  0  0  0  0  0  0  0  0
   -2.4843    5.5836   -1.8244 H   0  0  0  0  0  0  0  0  0  0  0  0
   -1.7038    4.8958    0.0874 C   0  0  0  0  0  0  0  0  0  0  0  0
   -1.7056    5.8987    0.5410 H   0  0  0  0  0  0  0  0  0  0  0  0
   -3.3826    0.3977    1.5403 C   0  0  0  0  0  0  0  0  0  0  0  0
   -3.0356    1.2765    2.0962 H   0  0  0  0  0  0  0  0  0  0  0  0
   -1.2703    3.7936    0.8377 C   0  0  0  0  0  0  0  0  0  0  0  0
   -0.9317    3.9359    1.8769 H   0  0  0  0  0  0  0  0  0  0  0  0
   -5.1982   -1.1476    0.9869 C   0  0  0  0  0  0  0  0  0  0  0  0
   -6.2412   -1.4709    1.1141 H   0  0  0  0  0  0  0  0  0  0  0  0
   -4.7108   -0.0207    1.6739 C   0  0  0  0  0  0  0  0  0  0  0  0
   -5.3795    0.5449    2.3396 H   0  0  0  0  0  0  0  0  0  0  0  0
  1  5  1  0  0  0  0
  1  4  1  0  0  0  0
  2  1  1  0  0  0  0
  3  1  1  0  0  0  0
  5 13  1  0  0  0  0
  6 29  1  0  0  0  0
  6  7  1  0  0  0  0
  7  9  1  0  0  0  0
  8  7  1  0  0  0  0
 10  5  1  0  0  0  0
 10 15  1  0  0  0  0
 11 10  2  0  0  0  0
 12 10  2  0  0  0  0
 13 14  1  0  0  0  0
 14 18  1  0  0  0  0
 14  7  1  0  0  0  0
 15 16  2  0  0  0  0
 15 18  1  0  0  0  0
 16 31  1  0  0  0  0
 17 16  1  0  0  0  0
 18 27  2  0  0  0  0
 19  6  2  0  0  0  0
 20 19  1  0  0  0  0
 21 23  2  0  0  0  0
 21 19  1  0  0  0  0
 22 21  1  0  0  0  0
 23 25  1  0  0  0  0
 24 23  1  0  0  0  0
 25 26  1  0  0  0  0
 25 29  2  0  0  0  0
 27 33  1  0  0  0  0
 27 28  1  0  0  0  0
 29 30  1  0  0  0  0
 31 32  1  0  0  0  0
 31 33  2  0  0  0  0
 33 34  1  0  0  0  0
M  END
