2
 OpenBabel05122313113D

 38 40  0  0  1  0  0  0  0  0999 V2000
   -1.3824    0.2796   -0.1163 Si  0  0  0  0  0  0  0  0  0  0  0  0
   -0.5045   -0.8385    1.2172 C   0  0  0  0  0  2  0  0  0  0  0  0
   -1.6948   -0.5275    1.6671 C   0  0  2  0  0  3  0  0  0  0  0  0
   -2.8491   -0.9189    2.5445 C   0  0  0  0  0  0  0  0  0  0  0  0
   -2.3606   -0.8852    4.0096 C   0  0  0  0  0  0  0  0  0  0  0  0
   -2.0238    0.1323    4.2936 H   0  0  0  0  0  0  0  0  0  0  0  0
   -1.5125   -1.5830    4.1593 H   0  0  0  0  0  0  0  0  0  0  0  0
   -3.1822   -1.1827    4.6938 H   0  0  0  0  0  0  0  0  0  0  0  0
   -3.2985   -2.3491    2.1686 C   0  0  0  0  0  0  0  0  0  0  0  0
   -2.4674   -3.0701    2.3003 H   0  0  0  0  0  0  0  0  0  0  0  0
   -3.6248   -2.3922    1.1106 H   0  0  0  0  0  0  0  0  0  0  0  0
   -4.1467   -2.6682    2.8097 H   0  0  0  0  0  0  0  0  0  0  0  0
   -4.0222    0.0624    2.3555 C   0  0  0  0  0  0  0  0  0  0  0  0
   -3.7225    1.0993    2.6069 H   0  0  0  0  0  0  0  0  0  0  0  0
   -4.8725   -0.2212    3.0086 H   0  0  0  0  0  0  0  0  0  0  0  0
   -4.3759    0.0547    1.3050 H   0  0  0  0  0  0  0  0  0  0  0  0
   -1.4728    2.1559   -0.0628 C   0  0  0  0  0  0  0  0  0  0  0  0
   -1.5565    2.8848    1.1434 C   0  0  0  0  0  0  0  0  0  0  0  0
   -1.6278    2.3400    2.0980 H   0  0  0  0  0  0  0  0  0  0  0  0
   -1.5417    4.2885    1.1373 C   0  0  0  0  0  0  0  0  0  0  0  0
   -1.6043    4.8423    2.0870 H   0  0  0  0  0  0  0  0  0  0  0  0
   -1.4555    4.9864   -0.0789 C   0  0  0  0  0  0  0  0  0  0  0  0
   -1.4478    6.0872   -0.0844 H   0  0  0  0  0  0  0  0  0  0  0  0
   -1.3841    4.2753   -1.2883 C   0  0  0  0  0  0  0  0  0  0  0  0
   -1.3175    4.8179   -2.2439 H   0  0  0  0  0  0  0  0  0  0  0  0
   -1.3867    2.8723   -1.2798 C   0  0  0  0  0  0  0  0  0  0  0  0
   -1.3101    2.3241   -2.2333 H   0  0  0  0  0  0  0  0  0  0  0  0
   -2.6860   -0.4854   -1.2350 C   0  0  0  0  0  0  0  0  0  0  0  0
   -3.8028    0.2709   -1.6538 C   0  0  0  0  0  0  0  0  0  0  0  0
   -3.8842    1.3323   -1.3695 H   0  0  0  0  0  0  0  0  0  0  0  0
   -4.8158   -0.3163   -2.4295 C   0  0  0  0  0  0  0  0  0  0  0  0
   -5.6790    0.2869   -2.7509 H   0  0  0  0  0  0  0  0  0  0  0  0
   -4.7282   -1.6691   -2.7918 C   0  0  0  0  0  0  0  0  0  0  0  0
   -5.5216   -2.1302   -3.3999 H   0  0  0  0  0  0  0  0  0  0  0  0
   -3.6220   -2.4324   -2.3807 C   0  0  0  0  0  0  0  0  0  0  0  0
   -3.5457   -3.4925   -2.6675 H   0  0  0  0  0  0  0  0  0  0  0  0
   -2.6073   -1.8448   -1.6126 C   0  0  0  0  0  0  0  0  0  0  0  0
   -1.7371   -2.4443   -1.3027 H   0  0  0  0  0  0  0  0  0  0  0  0
  1 17  1  0  0  0  0
  1  2  1  0  0  0  0
  1  3  1  0  0  0  0
  2  3  1  0  0  0  0
  3  4  1  6  0  0  0
  4  5  1  0  0  0  0
  5  7  1  0  0  0  0
  5  6  1  0  0  0  0
  5  8  1  0  0  0  0
  9 10  1  0  0  0  0
  9  4  1  0  0  0  0
  9 12  1  0  0  0  0
 11  9  1  0  0  0  0
 13  4  1  0  0  0  0
 13 14  1  0  0  0  0
 13 15  1  0  0  0  0
 16 13  1  0  0  0  0
 17 18  1  0  0  0  0
 18 19  1  0  0  0  0
 20 18  2  0  0  0  0
 20 21  1  0  0  0  0
 22 20  1  0  0  0  0
 23 22  1  0  0  0  0
 24 26  1  0  0  0  0
 24 22  2  0  0  0  0
 25 24  1  0  0  0  0
 26 17  2  0  0  0  0
 27 26  1  0  0  0  0
 28  1  1  0  0  0  0
 29 30  1  0  0  0  0
 29 28  2  0  0  0  0
 31 29  1  0  0  0  0
 32 31  1  0  0  0  0
 33 31  2  0  0  0  0
 33 35  1  0  0  0  0
 34 33  1  0  0  0  0
 35 37  2  0  0  0  0
 36 35  1  0  0  0  0
 37 38  1  0  0  0  0
 37 28  1  0  0  0  0
M  HYD  2   2   0   3   0
M  ZBO  1   3   0
M  END
