1
 OpenBabel05122313113D

 23 22  0  0  0  0  0  0  0  0999 V2000
    0.9795   -0.8186    0.3407 C   0  0  0  0  0  2  0  0  0  0  0  0
    0.8691   -1.5870    1.1313 H   0  0  0  0  0  0  0  0  0  0  0  0
    2.2487   -0.6707    0.0232 N   0  0  0  0  0  0  0  0  0  0  0  0
    3.2999   -1.4979    0.7110 C   0  0  0  0  0  0  0  0  0  0  0  0
    4.2572   -1.1837    0.2527 H   0  0  0  0  0  0  0  0  0  0  0  0
    3.0994   -2.9857    0.4175 C   0  0  0  0  0  0  0  0  0  0  0  0
    3.0482   -3.1782   -0.6716 H   0  0  0  0  0  0  0  0  0  0  0  0
    2.1689   -3.3711    0.8824 H   0  0  0  0  0  0  0  0  0  0  0  0
    3.9438   -3.5689    0.8332 H   0  0  0  0  0  0  0  0  0  0  0  0
    3.3586   -1.1750    2.2049 C   0  0  0  0  0  0  0  0  0  0  0  0
    3.5171   -0.0927    2.3782 H   0  0  0  0  0  0  0  0  0  0  0  0
    4.1960   -1.7250    2.6763 H   0  0  0  0  0  0  0  0  0  0  0  0
    2.4268   -1.4786    2.7243 H   0  0  0  0  0  0  0  0  0  0  0  0
    2.7178    0.2739   -1.0280 C   0  0  0  0  0  0  0  0  0  0  0  0
    1.7906    0.7602   -1.3858 H   0  0  0  0  0  0  0  0  0  0  0  0
    3.3643   -0.4708   -2.2004 C   0  0  0  0  0  0  0  0  0  0  0  0
    2.6840   -1.2329   -2.6243 H   0  0  0  0  0  0  0  0  0  0  0  0
    4.3152   -0.9618   -1.9111 H   0  0  0  0  0  0  0  0  0  0  0  0
    3.6033    0.2552   -3.0019 H   0  0  0  0  0  0  0  0  0  0  0  0
    3.6388    1.3432   -0.4329 C   0  0  0  0  0  0  0  0  0  0  0  0
    3.1691    1.8459    0.4337 H   0  0  0  0  0  0  0  0  0  0  0  0
    3.8560    2.1084   -1.2037 H   0  0  0  0  0  0  0  0  0  0  0  0
    4.6127    0.9253   -0.1075 H   0  0  0  0  0  0  0  0  0  0  0  0
  1  2  1  0  0  0  0
  3  1  1  0  0  0  0
  3  4  1  0  0  0  0
  4 10  1  0  0  0  0
  5  4  1  0  0  0  0
  6  4  1  0  0  0  0
  6  9  1  0  0  0  0
  6  8  1  0  0  0  0
  7  6  1  0  0  0  0
 10 11  1  0  0  0  0
 10 12  1  0  0  0  0
 10 13  1  0  0  0  0
 14 20  1  0  0  0  0
 14  3  1  0  0  0  0
 15 14  1  0  0  0  0
 16 18  1  0  0  0  0
 16 14  1  0  0  0  0
 17 16  1  0  0  0  0
 19 16  1  0  0  0  0
 20 23  1  0  0  0  0
 20 21  1  0  0  0  0
 22 20  1  0  0  0  0
M  END
