13
 OpenBabel05122313113D

 35 35  0  0  1  0  0  0  0  0999 V2000
   -0.9685   -2.1794   -0.6920 N   0  0  0  0  0  0  0  0  0  0  0  0
   -2.4908    0.1911   -0.4415 C   0  0  0  0  0  0  0  0  0  0  0  0
   -1.8012    1.1667   -1.2426 C   0  0  0  0  0  0  0  0  0  0  0  0
   -1.1883    2.1015   -0.3496 C   0  0  0  0  0  0  0  0  0  0  0  0
   -1.4743    1.6861    0.9999 C   0  0  0  0  0  0  0  0  0  0  0  0
   -2.3282    0.5398    0.9352 C   0  0  1  0  0  3  0  0  0  0  0  0
   -3.1849   -1.0437   -0.9497 C   0  0  0  0  0  0  0  0  0  0  0  0
   -3.2930   -0.9855   -2.0503 H   0  0  0  0  0  0  0  0  0  0  0  0
   -4.2181   -1.1135   -0.5489 H   0  0  0  0  0  0  0  0  0  0  0  0
   -2.4299   -2.3205   -0.5554 C   0  0  0  0  0  0  0  0  0  0  0  0
   -2.6189   -2.5629    0.5109 H   0  0  0  0  0  0  0  0  0  0  0  0
   -2.7855   -3.1902   -1.1623 H   0  0  0  0  0  0  0  0  0  0  0  0
   -0.4464   -1.4588   -1.8527 C   0  0  0  0  0  3  0  0  0  0  0  0
   -1.2183   -1.2194   -2.6037 H   0  0  0  0  0  0  0  0  0  0  0  0
    0.3632   -2.0270   -2.3388 H   0  0  0  0  0  0  0  0  0  0  0  0
   -0.2955   -3.4294   -0.3383 C   0  0  0  0  0  0  0  0  0  0  0  0
   -0.6216   -4.2604   -1.0067 H   0  0  0  0  0  0  0  0  0  0  0  0
   -0.5175   -3.6816    0.7163 H   0  0  0  0  0  0  0  0  0  0  0  0
    0.7982   -3.3080   -0.4295 H   0  0  0  0  0  0  0  0  0  0  0  0
   -1.8806    1.3559   -2.7289 C   0  0  0  0  0  0  0  0  0  0  0  0
   -2.5604    2.2007   -2.9766 H   0  0  0  0  0  0  0  0  0  0  0  0
   -2.2751    0.4614   -3.2471 H   0  0  0  0  0  0  0  0  0  0  0  0
   -0.8946    1.5906   -3.1759 H   0  0  0  0  0  0  0  0  0  0  0  0
   -0.7106    3.4582   -0.7779 C   0  0  0  0  0  0  0  0  0  0  0  0
   -1.5859    4.0611   -1.1064 H   0  0  0  0  0  0  0  0  0  0  0  0
   -0.0118    3.4260   -1.6357 H   0  0  0  0  0  0  0  0  0  0  0  0
   -0.2235    4.0153    0.0408 H   0  0  0  0  0  0  0  0  0  0  0  0
   -1.1112    2.3908    2.2742 C   0  0  0  0  0  0  0  0  0  0  0  0
   -1.9911    2.9115    2.7113 H   0  0  0  0  0  0  0  0  0  0  0  0
   -0.3232    3.1524    2.1201 H   0  0  0  0  0  0  0  0  0  0  0  0
   -0.7445    1.6707    3.0338 H   0  0  0  0  0  0  0  0  0  0  0  0
   -3.0584   -0.0470    2.1040 C   0  0  0  0  0  0  0  0  0  0  0  0
   -3.8486    0.6600    2.4395 H   0  0  0  0  0  0  0  0  0  0  0  0
   -2.3800   -0.2418    2.9563 H   0  0  0  0  0  0  0  0  0  0  0  0
   -3.5522   -1.0042    1.8522 H   0  0  0  0  0  0  0  0  0  0  0  0
  1 10  1  0  0  0  0
  1 16  1  0  0  0  0
  2  6  1  0  0  0  0
  3  2  2  0  0  0  0
  3  4  1  0  0  0  0
  4  5  2  0  0  0  0
  5 28  1  0  0  0  0
  6  5  1  0  0  0  0
  6 32  1  6  0  0  0
  7 10  1  0  0  0  0
  7  9  1  0  0  0  0
  7  2  1  0  0  0  0
  8  7  1  0  0  0  0
 10 11  1  0  0  0  0
 12 10  1  0  0  0  0
 13  1  1  0  0  0  0
 14 13  1  0  0  0  0
 15 13  1  0  0  0  0
 16 18  1  0  0  0  0
 17 16  1  0  0  0  0
 19 16  1  0  0  0  0
 20  3  1  0  0  0  0
 21 20  1  0  0  0  0
 22 20  1  0  0  0  0
 23 20  1  0  0  0  0
 24  4  1  0  0  0  0
 24 27  1  0  0  0  0
 25 24  1  0  0  0  0
 26 24  1  0  0  0  0
 28 29  1  0  0  0  0
 28 31  1  0  0  0  0
 30 28  1  0  0  0  0
 32 33  1  0  0  0  0
 32 34  1  0  0  0  0
 35 32  1  0  0  0  0
M  END
