18
 OpenBabel05122313113D

 43 45  0  0  1  0  0  0  0  0999 V2000
   -1.8922    3.8358   -0.7622 O   0  0  0  0  0  0  0  0  0  0  0  0
   -5.0951   -2.0945    0.3515 O   0  0  0  0  0  0  0  0  0  0  0  0
   -1.0528    1.7538    0.0438 N   0  0  0  0  0  0  0  0  0  0  0  0
   -1.0428    3.1009   -0.2962 C   0  0  0  0  0  0  0  0  0  0  0  0
    0.4246    3.2736    0.1652 C   0  0  0  0  0  0  0  0  0  0  0  0
    0.3433    1.7192    0.5035 C   0  0  2  0  0  0  0  0  0  0  0  0
   -2.0840    0.7987    0.1110 C   0  0  0  0  0  0  0  0  0  0  0  0
   -1.8981   -0.4091    0.8171 C   0  0  0  0  0  0  0  0  0  0  0  0
   -2.9222   -1.3542    0.8734 C   0  0  0  0  0  0  0  0  0  0  0  0
   -4.1595   -1.1107    0.2400 C   0  0  0  0  0  0  0  0  0  0  0  0
   -4.3513    0.1040   -0.4514 C   0  0  0  0  0  0  0  0  0  0  0  0
   -3.3196    1.0511   -0.5187 C   0  0  0  0  0  0  0  0  0  0  0  0
   -6.3487   -1.9001   -0.2714 C   0  0  0  0  0  0  0  0  0  0  0  0
    0.5405    4.1705    1.3976 C   0  0  0  0  0  0  0  0  0  0  0  0
    1.3706    3.6974   -0.9555 C   0  0  0  0  0  0  0  0  0  0  0  0
    1.2899    0.8332   -0.2707 C   0  0  0  0  0  0  0  0  0  0  0  0
    2.6682    0.7121    0.1557 C   0  0  1  0  0  3  0  0  0  0  0  0
    3.5701   -0.0313   -0.6540 C   0  0  0  0  0  3  0  0  0  0  0  0
    3.1316   -0.6897   -1.8436 C   0  0  0  0  0  0  0  0  0  0  0  0
    1.7797   -0.5948   -2.2428 C   0  0  0  0  0  0  0  0  0  0  0  0
    0.8664    0.1647   -1.4492 C   0  0  0  0  0  0  0  0  0  0  0  0
    3.1639    1.3810    1.4113 C   0  0  0  0  0  0  0  0  0  0  0  0
    0.4260    1.5209    1.5934 H   0  0  0  0  0  0  0  0  0  0  0  0
   -0.9428   -0.6146    1.3167 H   0  0  0  0  0  0  0  0  0  0  0  0
   -2.7812   -2.3062    1.4040 H   0  0  0  0  0  0  0  0  0  0  0  0
   -5.3049    0.3271   -0.9480 H   0  0  0  0  0  0  0  0  0  0  0  0
   -3.4658    2.0027   -1.0473 H   0  0  0  0  0  0  0  0  0  0  0  0
   -6.9468   -2.8068   -0.0639 H   0  0  0  0  0  0  0  0  0  0  0  0
   -6.2516   -1.7770   -1.3741 H   0  0  0  0  0  0  0  0  0  0  0  0
   -6.8847   -1.0134    0.1373 H   0  0  0  0  0  0  0  0  0  0  0  0
    1.5763    4.1770    1.7949 H   0  0  0  0  0  0  0  0  0  0  0  0
   -0.1405    3.8392    2.2074 H   0  0  0  0  0  0  0  0  0  0  0  0
    0.2679    5.2116    1.1323 H   0  0  0  0  0  0  0  0  0  0  0  0
    2.4287    3.6909   -0.6227 H   0  0  0  0  0  0  0  0  0  0  0  0
    1.1184    4.7289   -1.2727 H   0  0  0  0  0  0  0  0  0  0  0  0
    1.2861    3.0404   -1.8424 H   0  0  0  0  0  0  0  0  0  0  0  0
    4.6117   -0.1456   -0.3228 H   0  0  0  0  0  0  0  0  0  0  0  0
    3.8369   -1.3060   -2.4180 H   0  0  0  0  0  0  0  0  0  0  0  0
    1.4190   -1.1376   -3.1267 H   0  0  0  0  0  0  0  0  0  0  0  0
   -0.1940    0.2133   -1.7324 H   0  0  0  0  0  0  0  0  0  0  0  0
    2.4867    1.2116    2.2703 H   0  0  0  0  0  0  0  0  0  0  0  0
    3.2478    2.4779    1.2664 H   0  0  0  0  0  0  0  0  0  0  0  0
    4.1625    0.9958    1.6900 H   0  0  0  0  0  0  0  0  0  0  0  0
  1  4  2  0  0  0  0
  3  7  1  0  0  0  0
  3  6  1  0  0  0  0
  4  3  1  0  0  0  0
  4  5  1  0  0  0  0
  5  6  1  0  0  0  0
  5 14  1  0  0  0  0
  6 23  1  1  0  0  0
  7  8  1  0  0  0  0
  8  9  2  0  0  0  0
  8 24  1  0  0  0  0
  9 25  1  0  0  0  0
 10  2  1  0  0  0  0
 10  9  1  0  0  0  0
 11 10  2  0  0  0  0
 12 11  1  0  0  0  0
 12  7  2  0  0  0  0
 13 28  1  0  0  0  0
 13 30  1  0  0  0  0
 13  2  1  0  0  0  0
 14 31  1  0  0  0  0
 14 32  1  0  0  0  0
 15 34  1  0  0  0  0
 15  5  1  0  0  0  0
 16 17  1  0  0  0  0
 16  6  1  0  0  0  0
 17 22  1  6  0  0  0
 18 37  1  0  0  0  0
 18 17  1  0  0  0  0
 19 18  1  0  0  0  0
 20 19  2  0  0  0  0
 20 21  1  0  0  0  0
 21 16  2  0  0  0  0
 22 43  1  0  0  0  0
 22 41  1  0  0  0  0
 26 11  1  0  0  0  0
 27 12  1  0  0  0  0
 29 13  1  0  0  0  0
 33 14  1  0  0  0  0
 35 15  1  0  0  0  0
 36 15  1  0  0  0  0
 38 19  1  0  0  0  0
 39 20  1  0  0  0  0
 40 21  1  0  0  0  0
 42 22  1  0  0  0  0
M  END
