6
 OpenBabel05122313113D

  8  7  0  0  1  0  0  0  0  0999 V2000
   -0.0128   -1.0779   -2.2550 F   0  0  0  0  0  0  0  0  0  0  0  0
   -0.0502   -3.6479   -1.6028 F   0  0  0  0  0  0  0  0  0  0  0  0
   -1.1321   -3.9247    1.0458 F   0  0  0  0  0  0  0  0  0  0  0  0
    0.2893   -2.3988    1.7052 F   0  0  0  0  0  0  0  0  0  0  0  0
    1.0035   -4.2678    0.8184 F   0  0  0  0  0  0  0  0  0  0  0  0
    0.0179   -1.3746   -0.9250 C   0  0  0  0  0  0  0  0  0  0  0  0
    0.0156   -2.6975   -0.6358 C   0  0  1  0  0  0  0  0  0  0  0  0
    0.0449   -3.3060    0.7300 C   0  0  0  0  0  0  0  0  0  0  0  0
  1  6  1  0  0  0  0
  6  7  1  0  0  0  0
  7  2  1  1  0  0  0
  7  8  1  0  0  0  0
  8  5  1  0  0  0  0
  8  3  1  0  0  0  0
  8  4  1  0  0  0  0
M  END
