30
 OpenBabel05122313113D

 44 45  0  0  0  0  0  0  0  0999 V2000
    3.3697    0.5177    1.6643 Cl  0  0  0  0  0  0  0  0  0  0  0  0
    2.4512    0.3852   -0.8593 N   0  0  0  0  0  0  0  0  0  0  0  0
    1.7639    1.5964   -0.6923 C   0  0  0  0  0  0  0  0  0  0  0  0
    0.4077    1.5632   -0.2640 C   0  0  0  0  0  0  0  0  0  0  0  0
   -0.2832    2.7809   -0.1143 C   0  0  0  0  0  0  0  0  0  0  0  0
   -1.3308    2.7560    0.2192 H   0  0  0  0  0  0  0  0  0  0  0  0
    0.3426    4.0038   -0.3940 C   0  0  0  0  0  0  0  0  0  0  0  0
   -0.2175    4.9431   -0.2778 H   0  0  0  0  0  0  0  0  0  0  0  0
    1.6763    4.0225   -0.8308 C   0  0  0  0  0  0  0  0  0  0  0  0
    2.1724    4.9787   -1.0557 H   0  0  0  0  0  0  0  0  0  0  0  0
    2.3872    2.8249   -0.9816 C   0  0  0  0  0  0  0  0  0  0  0  0
    3.4339    2.8238   -1.3178 H   0  0  0  0  0  0  0  0  0  0  0  0
    3.1253   -0.2126    0.0239 C   0  0  0  0  0  0  0  0  0  0  0  0
    3.7612   -1.5858   -0.1482 C   0  0  0  0  0  0  0  0  0  0  0  0
    3.5157   -2.0717   -1.5867 C   0  0  0  0  0  0  0  0  0  0  0  0
    2.4335   -2.1784   -1.7926 H   0  0  0  0  0  0  0  0  0  0  0  0
    3.9978   -3.0594   -1.7292 H   0  0  0  0  0  0  0  0  0  0  0  0
    3.9330   -1.3638   -2.3283 H   0  0  0  0  0  0  0  0  0  0  0  0
    5.2768   -1.5060    0.1289 C   0  0  0  0  0  0  0  0  0  0  0  0
    5.7774   -0.8217   -0.5854 H   0  0  0  0  0  0  0  0  0  0  0  0
    5.7271   -2.5122    0.0139 H   0  0  0  0  0  0  0  0  0  0  0  0
    5.4808   -1.1470    1.1555 H   0  0  0  0  0  0  0  0  0  0  0  0
    3.0850   -2.5563    0.8483 C   0  0  0  0  0  0  0  0  0  0  0  0
    3.2639   -2.2469    1.8957 H   0  0  0  0  0  0  0  0  0  0  0  0
    3.4985   -3.5753    0.7081 H   0  0  0  0  0  0  0  0  0  0  0  0
    1.9893   -2.5974    0.6803 H   0  0  0  0  0  0  0  0  0  0  0  0
   -0.1999    0.2405    0.0168 C   0  0  0  0  0  0  0  0  0  0  0  0
   -0.4705   -0.7645   -0.9798 C   0  0  0  0  0  0  0  0  0  0  0  0
   -0.9521   -1.9316   -0.3037 C   0  0  0  0  0  0  0  0  0  0  0  0
   -0.9709   -1.6361    1.0983 C   0  0  0  0  0  3  0  0  0  0  0  0
   -1.3310   -2.3143    1.8828 H   0  0  0  0  0  0  0  0  0  0  0  0
   -0.4845   -0.3119    1.3128 C   0  0  0  0  0  0  0  0  0  0  0  0
   -0.2213   -0.6170   -2.4457 C   0  0  0  0  0  0  0  0  0  0  0  0
    0.8388   -0.8591   -2.6681 H   0  0  0  0  0  0  0  0  0  0  0  0
   -0.3984    0.4250   -2.7718 H   0  0  0  0  0  0  0  0  0  0  0  0
   -0.8704   -1.2837   -3.0441 H   0  0  0  0  0  0  0  0  0  0  0  0
   -1.3146   -3.2378   -0.9391 C   0  0  0  0  0  0  0  0  0  0  0  0
   -1.8094   -3.0960   -1.9194 H   0  0  0  0  0  0  0  0  0  0  0  0
   -2.0009   -3.8175   -0.2943 H   0  0  0  0  0  0  0  0  0  0  0  0
   -0.4004   -3.8460   -1.1111 H   0  0  0  0  0  0  0  0  0  0  0  0
   -0.2228    0.3390    2.6327 C   0  0  0  0  0  0  0  0  0  0  0  0
    0.8164    0.1133    2.9503 H   0  0  0  0  0  0  0  0  0  0  0  0
   -0.9197   -0.0284    3.4091 H   0  0  0  0  0  0  0  0  0  0  0  0
   -0.3212    1.4382    2.5679 H   0  0  0  0  0  0  0  0  0  0  0  0
  2  3  1  0  0  0  0
  2 13  2  0  0  0  0
  3  4  1  0  0  0  0
  4  5  2  0  0  0  0
  4 27  1  0  0  0  0
  5  6  1  0  0  0  0
  7  8  1  0  0  0  0
  7  5  1  0  0  0  0
  9  7  2  0  0  0  0
 10  9  1  0  0  0  0
 11  9  1  0  0  0  0
 11  3  2  0  0  0  0
 12 11  1  0  0  0  0
 13  1  1  0  0  0  0
 14 13  1  0  0  0  0
 14 19  1  0  0  0  0
 14 23  1  0  0  0  0
 15 14  1  0  0  0  0
 16 15  1  0  0  0  0
 17 15  1  0  0  0  0
 18 15  1  0  0  0  0
 19 22  1  0  0  0  0
 20 19  1  0  0  0  0
 21 19  1  0  0  0  0
 23 24  1  0  0  0  0
 25 23  1  0  0  0  0
 26 23  1  0  0  0  0
 27 32  2  0  0  0  0
 28 29  2  0  0  0  0
 28 27  1  0  0  0  0
 29 30  1  0  0  0  0
 30 32  1  0  0  0  0
 30 31  1  0  0  0  0
 32 41  1  0  0  0  0
 33 28  1  0  0  0  0
 34 33  1  0  0  0  0
 35 33  1  0  0  0  0
 36 33  1  0  0  0  0
 37 29  1  0  0  0  0
 37 39  1  0  0  0  0
 38 37  1  0  0  0  0
 40 37  1  0  0  0  0
 41 42  1  0  0  0  0
 41 43  1  0  0  0  0
 44 41  1  0  0  0  0
M  END
