8
 OpenBabel05122313113D

 25 26  0  0  0  0  0  0  0  0999 V2000
    2.4508   -0.5552    2.7734 F   0  0  0  0  0  0  0  0  0  0  0  0
    4.3331    0.2123    0.9468 F   0  0  0  0  0  0  0  0  0  0  0  0
    3.8176    2.3038   -0.7382 F   0  0  0  0  0  0  0  0  0  0  0  0
    1.4222    3.6287   -0.5995 F   0  0  0  0  0  0  0  0  0  0  0  0
   -0.4213    2.9084    1.2539 F   0  0  0  0  0  0  0  0  0  0  0  0
   -1.2478   -2.4991    1.5547 N   0  0  0  0  0  0  0  0  0  0  0  0
   -0.5226   -0.7631    2.6231 N   0  0  0  0  0  0  0  0  0  0  0  0
   -1.0898   -1.1464    1.4335 C   0  0  0  0  0  2  0  0  0  0  0  0
   -0.7568   -2.9543    2.7715 C   0  0  0  0  0  0  0  0  0  0  0  0
   -0.7647   -4.0132    3.0444 H   0  0  0  0  0  0  0  0  0  0  0  0
   -0.2988   -1.8576    3.4482 C   0  0  0  0  0  0  0  0  0  0  0  0
    0.1738   -1.7632    4.4295 H   0  0  0  0  0  0  0  0  0  0  0  0
   -0.1251    0.6097    2.9508 C   0  0  0  0  0  0  0  0  0  0  0  0
    0.2120    0.6005    4.0058 H   0  0  0  0  0  0  0  0  0  0  0  0
   -1.0084    1.2705    2.8795 H   0  0  0  0  0  0  0  0  0  0  0  0
    0.9579    1.1297    2.0403 C   0  0  0  0  0  0  0  0  0  0  0  0
    2.1976    0.4754    1.9569 C   0  0  0  0  0  0  0  0  0  0  0  0
    3.1716    0.8593    1.0257 C   0  0  0  0  0  0  0  0  0  0  0  0
    2.9087    1.9377    0.1638 C   0  0  0  0  0  0  0  0  0  0  0  0
    1.6864    2.6228    0.2426 C   0  0  0  0  0  0  0  0  0  0  0  0
    0.7356    2.2234    1.1897 C   0  0  0  0  0  0  0  0  0  0  0  0
   -1.7367   -3.3778    0.5006 C   0  0  0  0  0  0  0  0  0  0  0  0
   -2.2799   -2.7623   -0.2377 H   0  0  0  0  0  0  0  0  0  0  0  0
   -2.4079   -4.1425    0.9361 H   0  0  0  0  0  0  0  0  0  0  0  0
   -0.8856   -3.8493   -0.0261 H   0  0  0  0  0  0  0  0  0  0  0  0
  2 18  1  0  0  0  0
  3 19  1  0  0  0  0
  4 20  1  0  0  0  0
  6  9  1  0  0  0  0
  7 13  1  0  0  0  0
  7 11  1  0  0  0  0
  8  6  1  0  0  0  0
  8  7  1  0  0  0  0
  9 10  1  0  0  0  0
  9 11  2  0  0  0  0
 11 12  1  0  0  0  0
 13 14  1  0  0  0  0
 15 13  1  0  0  0  0
 16 13  1  0  0  0  0
 17 16  1  0  0  0  0
 17  1  1  0  0  0  0
 18 17  2  0  0  0  0
 19 20  2  0  0  0  0
 19 18  1  0  0  0  0
 20 21  1  0  0  0  0
 21  5  1  0  0  0  0
 21 16  2  0  0  0  0
 22 24  1  0  0  0  0
 22  6  1  0  0  0  0
 23 22  1  0  0  0  0
 25 22  1  0  0  0  0
M  END
