1
 OpenBabel05122313113D

 20 22  0  0  0  0  0  0  0  0999 V2000
   -0.0133   -1.5504   -2.0749 C   0  0  0  0  0  3  0  0  0  0  0  0
    0.7613   -1.5756   -2.8490 H   0  0  0  0  0  0  0  0  0  0  0  0
   -0.1915   -2.5075   -1.0011 C   0  0  0  0  0  0  0  0  0  0  0  0
   -1.4686   -2.2175   -0.4069 C   0  0  0  0  0  0  0  0  0  0  0  0
   -2.1489   -1.1845   -1.1403 C   0  0  0  0  0  0  0  0  0  0  0  0
   -1.2203   -0.7179   -2.1463 C   0  0  0  0  0  3  0  0  0  0  0  0
   -1.4511   -0.0381   -2.9742 H   0  0  0  0  0  0  0  0  0  0  0  0
    0.5995   -3.5160   -0.3887 C   0  0  0  0  0  0  0  0  0  0  0  0
    1.5700   -3.8174   -0.8109 H   0  0  0  0  0  0  0  0  0  0  0  0
    0.0893   -4.1658    0.7555 C   0  0  0  0  0  0  0  0  0  0  0  0
    0.7031   -4.9521    1.2246 H   0  0  0  0  0  0  0  0  0  0  0  0
   -1.1644   -3.8758    1.3196 C   0  0  0  0  0  0  0  0  0  0  0  0
   -1.5052   -4.4206    2.2128 H   0  0  0  0  0  0  0  0  0  0  0  0
   -2.0012   -2.8836    0.7359 C   0  0  0  0  0  0  0  0  0  0  0  0
   -3.2953   -2.4599    1.1533 C   0  0  0  0  0  0  0  0  0  0  0  0
   -3.7635   -2.9236    2.0344 H   0  0  0  0  0  0  0  0  0  0  0  0
   -3.9823   -1.4699    0.4304 C   0  0  0  0  0  0  0  0  0  0  0  0
   -4.9958   -1.1901    0.7626 H   0  0  0  0  0  0  0  0  0  0  0  0
   -3.4508   -0.8235   -0.7074 C   0  0  0  0  0  0  0  0  0  0  0  0
   -4.0526   -0.0896   -1.2640 H   0  0  0  0  0  0  0  0  0  0  0  0
  1  3  1  0  0  0  0
  2  1  1  0  0  0  0
  3  4  2  0  0  0  0
  3  8  1  0  0  0  0
  4 14  1  0  0  0  0
  5 19  2  0  0  0  0
  5  4  1  0  0  0  0
  6  1  1  0  0  0  0
  6  5  1  0  0  0  0
  7  6  1  0  0  0  0
  8 10  2  0  0  0  0
  9  8  1  0  0  0  0
 10 11  1  0  0  0  0
 10 12  1  0  0  0  0
 12 13  1  0  0  0  0
 14 15  1  0  0  0  0
 14 12  2  0  0  0  0
 15 16  1  0  0  0  0
 17 18  1  0  0  0  0
 17 15  2  0  0  0  0
 19 17  1  0  0  0  0
 20 19  1  0  0  0  0
M  END
