3
 OpenBabel05122313113D

 33 33  0  0  1  0  0  0  0  0999 V2000
    3.8278   -2.1609   -0.6779 C   0  0  0  0  0  0  0  0  0  0  0  0
    2.5156   -1.5892   -0.6997 C   0  0  0  0  0  3  0  0  0  0  0  0
    2.1490   -0.6356   -1.7266 C   0  0  0  0  0  3  0  0  0  0  0  0
    0.9042    0.0299   -1.5592 C   0  0  0  0  0  3  0  0  0  0  0  0
    0.1471   -0.2573   -0.3773 C   0  0  0  0  0  3  0  0  0  0  0  0
   -1.0759    0.5612   -0.0372 C   0  0  2  0  0  0  0  0  0  0  0  0
   -2.3608   -0.1505   -0.4784 C   0  0  1  0  0  0  0  0  0  0  0  0
   -2.8086   -1.4250    0.2664 C   0  0  1  0  0  0  0  0  0  0  0  0
   -2.4503   -1.4894    1.7503 C   0  0  0  0  0  0  0  0  0  0  0  0
   -4.6409   -0.0422   -0.2212 C   0  0  0  0  0  0  0  0  0  0  0  0
   -5.5650    0.4922    0.8662 C   0  0  0  0  0  0  0  0  0  0  0  0
   -5.2835   -0.0368   -1.6090 C   0  0  0  0  0  0  0  0  0  0  0  0
    4.9024   -2.6353   -0.6527 N   0  0  0  0  0  0  0  0  0  0  0  0
   -0.9983    1.8188   -0.6808 O   0  0  0  0  0  0  0  0  0  0  0  0
   -3.4398    0.7442   -0.2152 O   0  0  0  0  0  0  0  0  0  0  0  0
   -4.2281   -1.3853    0.0864 O   0  0  0  0  0  0  0  0  0  0  0  0
    1.7412   -2.2653   -0.2982 H   0  0  0  0  0  0  0  0  0  0  0  0
    2.8312   -0.3765   -2.5495 H   0  0  0  0  0  0  0  0  0  0  0  0
    0.6079    0.8568   -2.2211 H   0  0  0  0  0  0  0  0  0  0  0  0
    0.0799   -1.3014   -0.0307 H   0  0  0  0  0  0  0  0  0  0  0  0
   -1.1311    0.6877    1.0704 H   0  0  0  0  0  0  0  0  0  0  0  0
   -2.2845   -0.3593   -1.5737 H   0  0  0  0  0  0  0  0  0  0  0  0
   -2.4318   -2.3326   -0.2533 H   0  0  0  0  0  0  0  0  0  0  0  0
   -1.8792    2.2273   -0.5657 H   0  0  0  0  0  0  0  0  0  0  0  0
   -1.3636   -1.6438    1.9118 H   0  0  0  0  0  0  0  0  0  0  0  0
   -2.9891   -2.3365    2.2168 H   0  0  0  0  0  0  0  0  0  0  0  0
   -2.7512   -0.5612    2.2746 H   0  0  0  0  0  0  0  0  0  0  0  0
   -5.0520    0.4576    1.8454 H   0  0  0  0  0  0  0  0  0  0  0  0
   -6.4807   -0.1267    0.9207 H   0  0  0  0  0  0  0  0  0  0  0  0
   -5.8559    1.5384    0.6494 H   0  0  0  0  0  0  0  0  0  0  0  0
   -4.5557   -0.3777   -2.3704 H   0  0  0  0  0  0  0  0  0  0  0  0
   -5.6315    0.9804   -1.8745 H   0  0  0  0  0  0  0  0  0  0  0  0
   -6.1482   -0.7277   -1.6278 H   0  0  0  0  0  0  0  0  0  0  0  0
  1 13  3  0  0  0  0
  2  1  1  0  0  0  0
  2 17  1  0  0  0  0
  3  4  1  0  0  0  0
  3  2  1  0  0  0  0
  4  5  1  0  0  0  0
  5  6  1  0  0  0  0
  5 20  1  0  0  0  0
  6 21  1  1  0  0  0
  7 22  1  6  0  0  0
  7 15  1  0  0  0  0
  7  6  1  0  0  0  0
  7  8  1  0  0  0  0
  8 23  1  6  0  0  0
  8  9  1  0  0  0  0
  9 25  1  0  0  0  0
  9 26  1  0  0  0  0
  9 27  1  0  0  0  0
 10 15  1  0  0  0  0
 10 16  1  0  0  0  0
 10 11  1  0  0  0  0
 11 29  1  0  0  0  0
 11 28  1  0  0  0  0
 12 10  1  0  0  0  0
 14 24  1  0  0  0  0
 14  6  1  0  0  0  0
 16  8  1  0  0  0  0
 18  3  1  0  0  0  0
 19  4  1  0  0  0  0
 30 11  1  0  0  0  0
 31 12  1  0  0  0  0
 32 12  1  0  0  0  0
 33 12  1  0  0  0  0
M  END
