4
 OpenBabel05122313113D

 37 38  0  0  1  0  0  0  0  0999 V2000
   -5.6366    0.3215   -1.7291 N   0  0  0  0  0  0  0  0  0  0  0  0
   -4.6185    0.6825   -1.2676 C   0  0  0  0  0  0  0  0  0  0  0  0
   -3.3716    1.1162   -0.7137 C   0  0  0  0  0  3  0  0  0  0  0  0
   -3.2448    1.3365    0.7111 C   0  0  0  0  0  3  0  0  0  0  0  0
   -1.9312    1.5517    1.2080 C   0  0  0  0  0  3  0  0  0  0  0  0
   -0.8546    1.5059    0.2586 C   0  0  0  0  0  3  0  0  0  0  0  0
    0.5756    1.5218    0.7238 C   0  0  1  0  0  0  0  0  0  0  0  0
    1.6053    1.1350   -0.3741 C   0  0  2  0  0  0  0  0  0  0  0  0
    2.5802    0.0539    0.0763 C   0  0  2  0  0  0  0  0  0  0  0  0
    3.5559   -0.4722   -0.9872 C   0  0  1  0  0  0  0  0  0  0  0  0
    4.8638    0.2786   -1.1256 C   0  0  0  0  0  0  0  0  0  0  0  0
    1.9399    3.3338    0.2399 C   0  0  0  0  0  0  0  0  0  0  0  0
    2.5955   -2.2751    0.0945 C   0  0  0  0  0  0  0  0  0  0  0  0
    2.9587   -2.9990    1.3844 C   0  0  0  0  0  0  0  0  0  0  0  0
    1.7833   -3.1311   -0.8749 C   0  0  0  0  0  0  0  0  0  0  0  0
    0.9634    2.8711    1.0743 O   0  0  0  0  0  0  0  0  0  0  0  0
    2.4100    4.4344    0.2715 O   0  0  0  0  0  0  0  0  0  0  0  0
    2.3046    2.3530   -0.6457 O   0  0  0  0  0  0  0  0  0  0  0  0
    1.8143   -1.0907    0.4091 O   0  0  0  0  0  0  0  0  0  0  0  0
    3.7938   -1.7970   -0.5116 O   0  0  0  0  0  0  0  0  0  0  0  0
   -2.7748    1.7319   -1.4075 H   0  0  0  0  0  0  0  0  0  0  0  0
   -4.1058    1.2460    1.3897 H   0  0  0  0  0  0  0  0  0  0  0  0
   -1.7523    1.6225    2.2924 H   0  0  0  0  0  0  0  0  0  0  0  0
   -0.9935    2.0182   -0.7101 H   0  0  0  0  0  0  0  0  0  0  0  0
    0.7055    0.8952    1.6290 H   0  0  0  0  0  0  0  0  0  0  0  0
    1.0991    0.8070   -1.3051 H   0  0  0  0  0  0  0  0  0  0  0  0
    3.1547    0.4339    0.9598 H   0  0  0  0  0  0  0  0  0  0  0  0
    3.0225   -0.5022   -1.9716 H   0  0  0  0  0  0  0  0  0  0  0  0
    5.5166   -0.2134   -1.8720 H   0  0  0  0  0  0  0  0  0  0  0  0
    5.3979    0.3008   -0.1550 H   0  0  0  0  0  0  0  0  0  0  0  0
    4.6702    1.3190   -1.4505 H   0  0  0  0  0  0  0  0  0  0  0  0
    3.5922   -3.8803    1.1660 H   0  0  0  0  0  0  0  0  0  0  0  0
    2.0405   -3.3326    1.9043 H   0  0  0  0  0  0  0  0  0  0  0  0
    3.5215   -2.3154    2.0480 H   0  0  0  0  0  0  0  0  0  0  0  0
    2.3433   -4.0511   -1.1304 H   0  0  0  0  0  0  0  0  0  0  0  0
    1.5720   -2.5691   -1.8043 H   0  0  0  0  0  0  0  0  0  0  0  0
    0.8170   -3.4195   -0.4171 H   0  0  0  0  0  0  0  0  0  0  0  0
  1  2  3  0  0  0  0
  2  3  1  0  0  0  0
  3  4  1  0  0  0  0
  4  5  1  0  0  0  0
  4 22  1  0  0  0  0
  5 23  1  0  0  0  0
  6  7  1  0  0  0  0
  6  5  1  0  0  0  0
  7 16  1  0  0  0  0
  7 25  1  1  0  0  0
  8 26  1  6  0  0  0
  8  9  1  0  0  0  0
  8  7  1  0  0  0  0
  9 19  1  0  0  0  0
  9 27  1  1  0  0  0
 10 28  1  6  0  0  0
 10 20  1  0  0  0  0
 10  9  1  0  0  0  0
 11 10  1  0  0  0  0
 11 30  1  0  0  0  0
 12 17  2  0  0  0  0
 12 16  1  0  0  0  0
 13 19  1  0  0  0  0
 13 14  1  0  0  0  0
 14 33  1  0  0  0  0
 14 34  1  0  0  0  0
 15 37  1  0  0  0  0
 15 13  1  0  0  0  0
 18  8  1  0  0  0  0
 18 12  1  0  0  0  0
 20 13  1  0  0  0  0
 21  3  1  0  0  0  0
 24  6  1  0  0  0  0
 29 11  1  0  0  0  0
 31 11  1  0  0  0  0
 32 14  1  0  0  0  0
 35 15  1  0  0  0  0
 36 15  1  0  0  0  0
M  END
