3
 OpenBabel05122313113D

  8  7  0  0  0  0  0  0  0  0999 V2000
    4.5218    0.1886   -0.4290 O   0  0  0  0  0  0  0  0  0  0  0  0
    3.3459   -0.1417    0.2846 C   0  0  0  0  0  0  0  0  0  0  0  0
    2.1070   -0.1319   -0.5260 C   0  0  0  0  0  3  0  0  0  0  0  0
    1.5156   -0.0689   -1.6693 C   0  0  0  0  0  3  0  0  0  0  0  0
    4.3465    1.0379   -0.8750 H   0  0  0  0  0  0  0  0  0  0  0  0
    3.1942    0.5099    1.1834 H   0  0  0  0  0  0  0  0  0  0  0  0
    3.4835   -1.1697    0.6878 H   0  0  0  0  0  0  0  0  0  0  0  0
    1.6152   -0.0278   -2.7578 H   0  0  0  0  0  0  0  0  0  0  0  0
  1  2  1  0  0  0  0
  2  7  1  0  0  0  0
  2  6  1  0  0  0  0
  3  2  1  0  0  0  0
  4  3  2  0  0  0  0
  5  1  1  0  0  0  0
  8  4  1  0  0  0  0
M  END
