1
 OpenBabel05122313113D

 62 65  0  0  0  0  0  0  0  0999 V2000
   -0.5462    0.3887   -0.4513 C   0  0  0  0  0  2  0  0  0  0  0  0
   -1.3536   -0.4916   -1.0955 N   0  0  0  0  0  0  0  0  0  0  0  0
   -5.7649   -1.6888    1.1086 O   0  0  0  0  0  0  0  0  0  0  0  0
   -1.0164    1.6354   -0.6757 N   0  0  0  0  0  0  0  0  0  0  0  0
   -2.3556    0.1795   -1.9482 C   0  0  0  0  0  0  0  0  0  0  0  0
   -3.3497   -0.2886   -1.8116 H   0  0  0  0  0  0  0  0  0  0  0  0
   -2.0538    0.0771   -3.0130 H   0  0  0  0  0  0  0  0  0  0  0  0
   -3.3853   -2.3150   -0.3307 N   0  0  0  0  0  0  0  0  0  0  0  0
   -2.2771    1.6279   -1.4509 C   0  0  0  0  0  0  0  0  0  0  0  0
   -2.2406    2.3676   -2.2723 H   0  0  0  0  0  0  0  0  0  0  0  0
   -3.1253    1.8991   -0.7846 H   0  0  0  0  0  0  0  0  0  0  0  0
   -0.4961    2.8491   -0.1139 C   0  0  0  0  0  0  0  0  0  0  0  0
   -0.7215    3.1399    1.2591 C   0  0  0  0  0  0  0  0  0  0  0  0
   -0.2479    4.3672    1.7583 C   0  0  0  0  0  0  0  0  0  0  0  0
   -0.4071    4.6162    2.8175 H   0  0  0  0  0  0  0  0  0  0  0  0
    0.4168    5.2793    0.9302 C   0  0  0  0  0  0  0  0  0  0  0  0
    0.7760    6.2349    1.3416 H   0  0  0  0  0  0  0  0  0  0  0  0
    0.6311    4.9714   -0.4165 C   0  0  0  0  0  0  0  0  0  0  0  0
    1.1667    5.6859   -1.0592 H   0  0  0  0  0  0  0  0  0  0  0  0
    0.1888    3.7535   -0.9667 C   0  0  0  0  0  0  0  0  0  0  0  0
    0.4386    3.4575   -2.4402 C   0  0  0  0  0  0  0  0  0  0  0  0
    0.2216    2.3817   -2.6003 H   0  0  0  0  0  0  0  0  0  0  0  0
    1.9087    3.6697   -2.8341 C   0  0  0  0  0  0  0  0  0  0  0  0
    2.2088    4.7350   -2.7513 H   0  0  0  0  0  0  0  0  0  0  0  0
    2.0653    3.3635   -3.8885 H   0  0  0  0  0  0  0  0  0  0  0  0
    2.5707    3.0510   -2.1989 H   0  0  0  0  0  0  0  0  0  0  0  0
   -0.4920    4.2998   -3.3343 C   0  0  0  0  0  0  0  0  0  0  0  0
   -1.5635    4.1672   -3.0782 H   0  0  0  0  0  0  0  0  0  0  0  0
   -0.3581    4.0318   -4.4024 H   0  0  0  0  0  0  0  0  0  0  0  0
   -0.2669    5.3817   -3.2288 H   0  0  0  0  0  0  0  0  0  0  0  0
   -1.4924    2.1934    2.1729 C   0  0  0  0  0  0  0  0  0  0  0  0
   -1.3925    1.1743    1.7490 H   0  0  0  0  0  0  0  0  0  0  0  0
   -0.9197    2.1426    3.5968 C   0  0  0  0  0  0  0  0  0  0  0  0
    0.1750    1.9727    3.5843 H   0  0  0  0  0  0  0  0  0  0  0  0
   -1.3930    1.3228    4.1741 H   0  0  0  0  0  0  0  0  0  0  0  0
   -1.1087    3.0824    4.1552 H   0  0  0  0  0  0  0  0  0  0  0  0
   -2.9889    2.5572    2.2065 C   0  0  0  0  0  0  0  0  0  0  0  0
   -3.1361    3.5782    2.6155 H   0  0  0  0  0  0  0  0  0  0  0  0
   -3.5546    1.8500    2.8481 H   0  0  0  0  0  0  0  0  0  0  0  0
   -3.4435    2.5389    1.1961 H   0  0  0  0  0  0  0  0  0  0  0  0
   -1.1206   -1.8921   -1.1911 C   0  0  0  0  0  0  0  0  0  0  0  0
    0.1157   -2.3603   -1.6703 C   0  0  0  0  0  0  0  0  0  0  0  0
    0.8908   -1.6215   -1.9320 H   0  0  0  0  0  0  0  0  0  0  0  0
    0.3411   -3.7360   -1.8204 C   0  0  0  0  0  0  0  0  0  0  0  0
    1.3099   -4.0915   -2.2014 H   0  0  0  0  0  0  0  0  0  0  0  0
   -0.6846   -4.6423   -1.5117 C   0  0  0  0  0  0  0  0  0  0  0  0
   -0.5244   -5.7241   -1.6369 H   0  0  0  0  0  0  0  0  0  0  0  0
   -1.9175   -4.1824   -1.0283 C   0  0  0  0  0  0  0  0  0  0  0  0
   -2.6964   -4.9098   -0.7626 H   0  0  0  0  0  0  0  0  0  0  0  0
   -2.1594   -2.8022   -0.8386 C   0  0  0  0  0  0  0  0  0  0  0  0
   -3.3344   -1.5955    0.9490 C   0  0  0  0  0  0  0  0  0  0  0  0
   -2.4793   -0.8950    0.9545 H   0  0  0  0  0  0  0  0  0  0  0  0
   -3.1851   -2.3185    1.7907 H   0  0  0  0  0  0  0  0  0  0  0  0
   -4.6374   -0.8335    1.1720 C   0  0  0  0  0  0  0  0  0  0  0  0
   -4.6416   -0.3644    2.1762 H   0  0  0  0  0  0  0  0  0  0  0  0
   -4.7241   -0.0182    0.4086 H   0  0  0  0  0  0  0  0  0  0  0  0
   -4.5531   -3.1861   -0.3929 C   0  0  0  0  0  0  0  0  0  0  0  0
   -4.5032   -4.0087    0.3659 H   0  0  0  0  0  0  0  0  0  0  0  0
   -4.6093   -3.6528   -1.3972 H   0  0  0  0  0  0  0  0  0  0  0  0
   -5.8151   -2.3600   -0.1377 C   0  0  0  0  0  0  0  0  0  0  0  0
   -5.9417   -1.6240   -0.9717 H   0  0  0  0  0  0  0  0  0  0  0  0
   -6.7067   -3.0180   -0.1142 H   0  0  0  0  0  0  0  0  0  0  0  0
  2  1  1  0  0  0  0
  3 54  1  0  0  0  0
  4  1  1  0  0  0  0
  4 12  1  0  0  0  0
  5  6  1  0  0  0  0
  5  9  1  0  0  0  0
  5  2  1  0  0  0  0
  7  5  1  0  0  0  0
  8 51  1  0  0  0  0
  9 11  1  0  0  0  0
  9  4  1  0  0  0  0
 10  9  1  0  0  0  0
 12 13  1  0  0  0  0
 13 14  2  0  0  0  0
 13 31  1  0  0  0  0
 14 15  1  0  0  0  0
 16 17  1  0  0  0  0
 16 14  1  0  0  0  0
 18 16  2  0  0  0  0
 19 18  1  0  0  0  0
 20 18  1  0  0  0  0
 20 12  2  0  0  0  0
 21 20  1  0  0  0  0
 22 21  1  0  0  0  0
 23 24  1  0  0  0  0
 23 21  1  0  0  0  0
 23 26  1  0  0  0  0
 25 23  1  0  0  0  0
 27 30  1  0  0  0  0
 27 28  1  0  0  0  0
 27 21  1  0  0  0  0
 29 27  1  0  0  0  0
 31 37  1  0  0  0  0
 31 33  1  0  0  0  0
 32 31  1  0  0  0  0
 33 36  1  0  0  0  0
 33 35  1  0  0  0  0
 34 33  1  0  0  0  0
 37 38  1  0  0  0  0
 37 39  1  0  0  0  0
 40 37  1  0  0  0  0
 41  2  1  0  0  0  0
 41 50  1  0  0  0  0
 42 41  2  0  0  0  0
 43 42  1  0  0  0  0
 44 42  1  0  0  0  0
 44 46  2  0  0  0  0
 45 44  1  0  0  0  0
 46 48  1  0  0  0  0
 47 46  1  0  0  0  0
 48 50  2  0  0  0  0
 48 49  1  0  0  0  0
 50  8  1  0  0  0  0
 51 52  1  0  0  0  0
 51 54  1  0  0  0  0
 51 53  1  0  0  0  0
 54 55  1  0  0  0  0
 56 54  1  0  0  0  0
 57  8  1  0  0  0  0
 57 60  1  0  0  0  0
 57 58  1  0  0  0  0
 59 57  1  0  0  0  0
 60 62  1  0  0  0  0
 60  3  1  0  0  0  0
 61 60  1  0  0  0  0
M  END
