2
 OpenBabel05122313113D

 31 33  0  0  0  0  0  0  0  0999 V2000
   -0.1140   -1.6181   -0.1369 N   0  0  0  0  0  0  0  0  0  0  0  0
    0.1385   -0.2385   -0.0467 C   0  0  0  0  0  2  0  0  0  0  0  0
    1.5460    0.0462   -0.0291 C   0  0  0  0  0  0  0  0  0  0  0  0
    2.5751   -0.8914   -0.1142 C   0  0  0  0  0  0  0  0  0  0  0  0
    2.2042   -2.2677   -0.2078 C   0  0  0  0  0  0  0  0  0  0  0  0
    0.8683   -2.5808   -0.2100 C   0  0  0  0  0  0  0  0  0  0  0  0
   -1.4599   -2.1508   -0.1632 C   0  0  0  0  0  0  0  0  0  0  0  0
   -2.0177   -2.5220   -1.3959 C   0  0  0  0  0  0  0  0  0  0  0  0
   -3.2929   -3.1023   -1.4283 C   0  0  0  0  0  0  0  0  0  0  0  0
   -3.9979   -3.3185   -0.2346 C   0  0  0  0  0  0  0  0  0  0  0  0
   -3.4236   -2.9595    0.9950 C   0  0  0  0  0  0  0  0  0  0  0  0
   -2.1477   -2.3811    1.0384 C   0  0  0  0  0  0  0  0  0  0  0  0
    3.9991   -0.4832   -0.0891 C   0  0  0  0  0  0  0  0  0  0  0  0
    4.9844   -1.3234    0.4795 C   0  0  0  0  0  0  0  0  0  0  0  0
    6.3299   -0.9341    0.5146 C   0  0  0  0  0  0  0  0  0  0  0  0
    6.7229    0.3007   -0.0252 C   0  0  0  0  0  0  0  0  0  0  0  0
    5.7572    1.1437   -0.5993 C   0  0  0  0  0  0  0  0  0  0  0  0
    4.4117    0.7567   -0.6306 C   0  0  0  0  0  0  0  0  0  0  0  0
    1.8342    1.0938    0.1078 H   0  0  0  0  0  0  0  0  0  0  0  0
    2.9498   -3.0679   -0.2978 H   0  0  0  0  0  0  0  0  0  0  0  0
    0.5026   -3.6148   -0.2769 H   0  0  0  0  0  0  0  0  0  0  0  0
   -1.4566   -2.3280   -2.3216 H   0  0  0  0  0  0  0  0  0  0  0  0
   -3.7415   -3.3785   -2.3941 H   0  0  0  0  0  0  0  0  0  0  0  0
   -5.0026   -3.7661   -0.2626 H   0  0  0  0  0  0  0  0  0  0  0  0
   -3.9741   -3.1272    1.9327 H   0  0  0  0  0  0  0  0  0  0  0  0
   -1.6916   -2.0858    1.9933 H   0  0  0  0  0  0  0  0  0  0  0  0
    4.6864   -2.2827    0.9285 H   0  0  0  0  0  0  0  0  0  0  0  0
    7.0777   -1.5988    0.9732 H   0  0  0  0  0  0  0  0  0  0  0  0
    7.7801    0.6049   -0.0012 H   0  0  0  0  0  0  0  0  0  0  0  0
    6.0568    2.1087   -1.0356 H   0  0  0  0  0  0  0  0  0  0  0  0
    3.6681    1.4130   -1.1068 H   0  0  0  0  0  0  0  0  0  0  0  0
  1  2  1  0  0  0  0
  2  3  1  0  0  0  0
  3 19  1  0  0  0  0
  4 13  1  0  0  0  0
  4  3  2  0  0  0  0
  5  4  1  0  0  0  0
  6  5  2  0  0  0  0
  6  1  1  0  0  0  0
  7  1  1  0  0  0  0
  7 12  1  0  0  0  0
  8  7  2  0  0  0  0
  9  8  1  0  0  0  0
  9 10  2  0  0  0  0
 10 11  1  0  0  0  0
 11 12  2  0  0  0  0
 11 25  1  0  0  0  0
 12 26  1  0  0  0  0
 13 14  1  0  0  0  0
 14 15  2  0  0  0  0
 14 27  1  0  0  0  0
 15 28  1  0  0  0  0
 16 29  1  0  0  0  0
 16 15  1  0  0  0  0
 17 16  2  0  0  0  0
 18 17  1  0  0  0  0
 18 13  2  0  0  0  0
 20  5  1  0  0  0  0
 21  6  1  0  0  0  0
 22  8  1  0  0  0  0
 23  9  1  0  0  0  0
 24 10  1  0  0  0  0
 30 17  1  0  0  0  0
 31 18  1  0  0  0  0
M  END
