10
 OpenBabel05122313113D

 12 12  0  0  0  0  0  0  0  0999 V2000
   -7.1230   -1.1488   -0.0003 C   0  0  0  0  0  0  0  0  0  0  0  0
   -7.7128   -2.0822   -0.0000 H   0  0  0  0  0  0  0  0  0  0  0  0
   -5.0117   -0.0000   -0.0002 C   0  0  0  0  0  0  0  0  0  0  0  0
   -7.8179   -0.0003   -0.0010 N   0  0  0  0  0  0  0  0  0  0  0  0
   -5.7226    1.2170   -0.0009 C   0  0  0  0  0  0  0  0  0  0  0  0
   -5.1900    2.1781   -0.0012 H   0  0  0  0  0  0  0  0  0  0  0  0
   -3.6358    0.0002    0.0002 N   0  0  0  0  0  2  0  0  0  0  0  0
   -5.7223   -1.2171    0.0001 C   0  0  0  0  0  0  0  0  0  0  0  0
   -5.1895   -2.1782    0.0007 H   0  0  0  0  0  0  0  0  0  0  0  0
   -2.4515    0.0002    0.0007 C   0  0  0  0  0  1  0  0  0  0  0  0
   -7.1232    1.1484   -0.0013 C   0  0  0  0  0  0  0  0  0  0  0  0
   -7.7133    2.0816   -0.0019 H   0  0  0  0  0  0  0  0  0  0  0  0
  1  2  1  0  0  0  0
  1  8  1  0  0  0  0
  3  8  2  0  0  0  0
  3  7  1  0  0  0  0
  4  1  2  0  0  0  0
  5  3  1  0  0  0  0
  6  5  1  0  0  0  0
  7 10  1  0  0  0  0
  8  9  1  0  0  0  0
 11  4  1  0  0  0  0
 11  5  2  0  0  0  0
 12 11  1  0  0  0  0
M  END
