1
 OpenBabel05122313113D

 12 12  0  0  0  0  0  0  0  0999 V2000
    1.5177    0.2440   -1.8014 C   0  0  0  0  0  3  0  0  0  0  0  0
    2.0424   -1.0103   -1.3454 C   0  0  0  0  0  3  0  0  0  0  0  0
    3.3669   -0.7835   -0.6843 C   0  0  0  0  0  0  0  0  0  0  0  0
    3.4479    0.7136   -0.4750 C   0  0  0  0  0  0  0  0  0  0  0  0
    2.1701    1.2468   -0.9846 C   0  0  0  0  0  3  0  0  0  0  0  0
    4.5066    1.3465    0.0713 C   0  0  0  0  0  0  0  0  0  0  0  0
    4.2088   -1.6189   -0.3877 O   0  0  0  0  0  0  0  0  0  0  0  0
    0.8508    0.4185   -2.6555 H   0  0  0  0  0  0  0  0  0  0  0  0
    1.7982   -1.9873   -1.7781 H   0  0  0  0  0  0  0  0  0  0  0  0
    2.0191    2.3257   -1.1207 H   0  0  0  0  0  0  0  0  0  0  0  0
    4.5356    2.4376    0.2091 H   0  0  0  0  0  0  0  0  0  0  0  0
    5.3717    0.7462    0.3941 H   0  0  0  0  0  0  0  0  0  0  0  0
  1  2  1  0  0  0  0
  1  5  1  0  0  0  0
  2  3  1  0  0  0  0
  3  4  1  0  0  0  0
  3  7  2  0  0  0  0
  4  6  2  0  0  0  0
  5  4  1  0  0  0  0
  6 11  1  0  0  0  0
  6 12  1  0  0  0  0
  8  1  1  0  0  0  0
  9  2  1  0  0  0  0
 10  5  1  0  0  0  0
M  END
