4
 OpenBabel05122313113D

 35 37  0  0  1  0  0  0  0  0999 V2000
   -1.5980   -0.1204    2.7954 O   0  0  0  0  0  0  0  0  0  0  0  0
   -0.8954   -0.3496    1.8081 C   0  0  0  0  0  0  0  0  0  0  0  0
   -1.3178   -0.7479    0.4208 C   0  0  1  0  0  3  0  0  0  0  0  0
   -0.1300   -1.1046   -0.3484 C   0  0  2  0  0  3  0  0  0  0  0  0
    1.0371   -0.8862    0.5203 C   0  0  1  0  0  3  0  0  0  0  0  0
    0.5863   -0.2202    1.7209 C   0  0  2  0  0  3  0  0  0  0  0  0
   -0.0499   -0.6807   -1.7308 C   0  0  0  0  0  3  0  0  0  0  0  0
    1.3453    0.0925    2.9740 C   0  0  0  0  0  0  0  0  0  0  0  0
   -2.7027   -1.0721    0.0414 C   0  0  0  0  0  0  0  0  0  0  0  0
   -2.9796   -1.9817   -1.0085 C   0  0  0  0  0  0  0  0  0  0  0  0
   -4.2988   -2.3195   -1.3346 C   0  0  0  0  0  0  0  0  0  0  0  0
   -5.3683   -1.7681   -0.6103 C   0  0  0  0  0  0  0  0  0  0  0  0
   -5.1055   -0.8885    0.4522 C   0  0  0  0  0  0  0  0  0  0  0  0
   -3.7894   -0.5418    0.7797 C   0  0  0  0  0  0  0  0  0  0  0  0
    2.4027   -1.3438    0.1894 C   0  0  0  0  0  0  0  0  0  0  0  0
    3.5610   -0.7690    0.7669 C   0  0  0  0  0  0  0  0  0  0  0  0
    4.8375   -1.2532    0.4544 C   0  0  0  0  0  0  0  0  0  0  0  0
    4.9924   -2.3256   -0.4395 C   0  0  0  0  0  0  0  0  0  0  0  0
    3.8536   -2.9159   -1.0091 C   0  0  0  0  0  0  0  0  0  0  0  0
    2.5752   -2.4364   -0.6942 C   0  0  0  0  0  0  0  0  0  0  0  0
   -0.9620   -0.7101   -2.3437 H   0  0  0  0  0  0  0  0  0  0  0  0
    0.8897   -0.8682   -2.2747 H   0  0  0  0  0  0  0  0  0  0  0  0
    2.0349    0.9546    2.8810 H   0  0  0  0  0  0  0  0  0  0  0  0
    1.9483   -0.7774    3.3084 H   0  0  0  0  0  0  0  0  0  0  0  0
    0.6015    0.3285    3.7620 H   0  0  0  0  0  0  0  0  0  0  0  0
   -2.1489   -2.4499   -1.5546 H   0  0  0  0  0  0  0  0  0  0  0  0
   -4.4932   -3.0292   -2.1532 H   0  0  0  0  0  0  0  0  0  0  0  0
   -6.4052   -2.0350   -0.8660 H   0  0  0  0  0  0  0  0  0  0  0  0
   -5.9374   -0.4665    1.0364 H   0  0  0  0  0  0  0  0  0  0  0  0
   -3.5769    0.1238    1.6258 H   0  0  0  0  0  0  0  0  0  0  0  0
    3.4611    0.0778    1.4577 H   0  0  0  0  0  0  0  0  0  0  0  0
    5.7220   -0.7864    0.9140 H   0  0  0  0  0  0  0  0  0  0  0  0
    5.9963   -2.7045   -0.6834 H   0  0  0  0  0  0  0  0  0  0  0  0
    3.9594   -3.7679   -1.6978 H   0  0  0  0  0  0  0  0  0  0  0  0
    1.6864   -2.9238   -1.1198 H   0  0  0  0  0  0  0  0  0  0  0  0
  2  1  2  0  0  0  0
  3  9  1  1  0  0  0
  3  2  1  0  0  0  0
  4  7  1  6  0  0  0
  4  3  1  0  0  0  0
  4  5  1  0  0  0  0
  5 15  1  1  0  0  0
  5  6  1  0  0  0  0
  6  2  1  0  0  0  0
  6  8  1  1  0  0  0
  8 24  1  0  0  0  0
  8 25  1  0  0  0  0
  9 14  1  0  0  0  0
 10  9  2  0  0  0  0
 11 10  1  0  0  0  0
 11 12  2  0  0  0  0
 12 13  1  0  0  0  0
 13 14  2  0  0  0  0
 13 29  1  0  0  0  0
 14 30  1  0  0  0  0
 15 16  1  0  0  0  0
 16 31  1  0  0  0  0
 17 16  2  0  0  0  0
 17 32  1  0  0  0  0
 18 17  1  0  0  0  0
 19 20  1  0  0  0  0
 19 18  2  0  0  0  0
 20 15  2  0  0  0  0
 21  7  1  0  0  0  0
 22  7  1  0  0  0  0
 23  8  1  0  0  0  0
 26 10  1  0  0  0  0
 27 11  1  0  0  0  0
 28 12  1  0  0  0  0
 33 18  1  0  0  0  0
 34 19  1  0  0  0  0
 35 20  1  0  0  0  0
M  END
