3
 OpenBabel05122313113D

 50 52  0  0  0  0  0  0  0  0999 V2000
    0.5076   -1.9436    0.9370 N   0  0  0  0  0  0  0  0  0  0  0  0
    2.4613   -0.9909    0.7231 N   0  0  0  0  0  0  0  0  0  0  0  0
   -2.7592   -1.9340   -0.9899 C   0  0  0  0  0  3  0  0  0  0  0  0
   -3.8727   -1.6591   -0.1146 C   0  0  0  0  0  3  0  0  0  0  0  0
   -3.9915   -2.0449    1.2694 C   0  0  0  0  0  0  0  0  0  0  0  0
   -3.0176   -2.4928    2.1448 C   0  0  0  0  0  0  0  0  0  0  0  0
   -1.6056   -2.4908    1.9497 C   0  0  0  0  0  0  0  0  0  0  0  0
   -0.9145   -2.1466    0.7999 C   0  0  0  0  0  0  0  0  0  0  0  0
   -1.4046   -1.8745   -0.5388 C   0  0  0  0  0  3  0  0  0  0  0  0
    1.1666   -0.9188    0.3513 C   0  0  0  0  0  3  0  0  0  0  0  0
    1.4079   -2.6867    1.6945 C   0  0  0  0  0  0  0  0  0  0  0  0
    2.6371   -2.0834    1.5623 C   0  0  0  0  0  0  0  0  0  0  0  0
    3.4799   -0.0470    0.3189 C   0  0  0  0  0  0  0  0  0  0  0  0
    4.1711   -0.2887   -0.8907 C   0  0  0  0  0  0  0  0  0  0  0  0
    5.1622    0.6420   -1.2530 C   0  0  0  0  0  0  0  0  0  0  0  0
    5.4332    1.7556   -0.4481 C   0  0  0  0  0  0  0  0  0  0  0  0
    4.7097    1.9754    0.7304 C   0  0  0  0  0  0  0  0  0  0  0  0
    3.7064    1.0790    1.1439 C   0  0  0  0  0  0  0  0  0  0  0  0
    3.7982   -1.4449   -1.8092 C   0  0  0  0  0  0  0  0  0  0  0  0
    2.8401   -0.9454   -2.9104 C   0  0  0  0  0  0  0  0  0  0  0  0
    5.0199   -2.1564   -2.4082 C   0  0  0  0  0  0  0  0  0  0  0  0
    2.8455    1.3679    2.3666 C   0  0  0  0  0  0  0  0  0  0  0  0
    1.7294    2.3657    1.9943 C   0  0  0  0  0  0  0  0  0  0  0  0
    3.6618    1.8590    3.5711 C   0  0  0  0  0  0  0  0  0  0  0  0
   -2.9433   -2.1047   -2.0634 H   0  0  0  0  0  0  0  0  0  0  0  0
   -4.8288   -1.4684   -0.6261 H   0  0  0  0  0  0  0  0  0  0  0  0
   -5.0091   -1.9578    1.6832 H   0  0  0  0  0  0  0  0  0  0  0  0
   -3.3531   -2.7628    3.1579 H   0  0  0  0  0  0  0  0  0  0  0  0
   -0.9990   -2.6631    2.8531 H   0  0  0  0  0  0  0  0  0  0  0  0
   -0.6403   -1.9171   -1.3316 H   0  0  0  0  0  0  0  0  0  0  0  0
    0.6956   -0.1134   -0.2757 H   0  0  0  0  0  0  0  0  0  0  0  0
    1.1032   -3.5872    2.2340 H   0  0  0  0  0  0  0  0  0  0  0  0
    3.6175   -2.3388    1.9736 H   0  0  0  0  0  0  0  0  0  0  0  0
    5.7238    0.4959   -2.1870 H   0  0  0  0  0  0  0  0  0  0  0  0
    6.2119    2.4715   -0.7516 H   0  0  0  0  0  0  0  0  0  0  0  0
    4.9181    2.8673    1.3387 H   0  0  0  0  0  0  0  0  0  0  0  0
    3.2492   -2.1957   -1.2023 H   0  0  0  0  0  0  0  0  0  0  0  0
    1.9434   -0.4402   -2.4959 H   0  0  0  0  0  0  0  0  0  0  0  0
    2.5025   -1.7896   -3.5457 H   0  0  0  0  0  0  0  0  0  0  0  0
    3.3523   -0.2107   -3.5652 H   0  0  0  0  0  0  0  0  0  0  0  0
    5.7237   -2.4962   -1.6221 H   0  0  0  0  0  0  0  0  0  0  0  0
    5.5793   -1.4988   -3.1043 H   0  0  0  0  0  0  0  0  0  0  0  0
    4.6984   -3.0431   -2.9903 H   0  0  0  0  0  0  0  0  0  0  0  0
    2.3569    0.4184    2.6709 H   0  0  0  0  0  0  0  0  0  0  0  0
    1.0577    2.5369    2.8596 H   0  0  0  0  0  0  0  0  0  0  0  0
    1.1084    2.0168    1.1434 H   0  0  0  0  0  0  0  0  0  0  0  0
    2.1654    3.3432    1.7021 H   0  0  0  0  0  0  0  0  0  0  0  0
    3.0054    1.9642    4.4578 H   0  0  0  0  0  0  0  0  0  0  0  0
    4.1129    2.8549    3.3844 H   0  0  0  0  0  0  0  0  0  0  0  0
    4.4809    1.1574    3.8284 H   0  0  0  0  0  0  0  0  0  0  0  0
  1 11  1  0  0  0  0
  2 12  1  0  0  0  0
  3  9  1  0  0  0  0
  3  4  1  0  0  0  0
  4  5  1  0  0  0  0
  5 27  1  0  0  0  0
  5  6  2  0  0  0  0
  6 28  1  0  0  0  0
  7  6  1  0  0  0  0
  7 29  1  0  0  0  0
  8  1  1  0  0  0  0
  8  7  2  0  0  0  0
  9  8  1  0  0  0  0
 10  2  1  0  0  0  0
 10  1  1  0  0  0  0
 11 32  1  0  0  0  0
 12 11  2  0  0  0  0
 12 33  1  0  0  0  0
 13  2  1  0  0  0  0
 13 18  1  0  0  0  0
 14 13  2  0  0  0  0
 15 14  1  0  0  0  0
 15 16  2  0  0  0  0
 16 17  1  0  0  0  0
 17 18  2  0  0  0  0
 17 36  1  0  0  0  0
 18 22  1  0  0  0  0
 19 37  1  0  0  0  0
 19 14  1  0  0  0  0
 20 38  1  0  0  0  0
 20 19  1  0  0  0  0
 21 19  1  0  0  0  0
 21 41  1  0  0  0  0
 22 44  1  0  0  0  0
 22 24  1  0  0  0  0
 23 22  1  0  0  0  0
 23 45  1  0  0  0  0
 24 50  1  0  0  0  0
 24 48  1  0  0  0  0
 25  3  1  0  0  0  0
 26  4  1  0  0  0  0
 30  9  1  0  0  0  0
 31 10  1  0  0  0  0
 34 15  1  0  0  0  0
 35 16  1  0  0  0  0
 39 20  1  0  0  0  0
 40 20  1  0  0  0  0
 42 21  1  0  0  0  0
 43 21  1  0  0  0  0
 46 23  1  0  0  0  0
 47 23  1  0  0  0  0
 49 24  1  0  0  0  0
M  END
