8
 OpenBabel05122313113D

 77 83  0  0  1  0  0  0  0  0999 V2000
    0.8516   -1.1987    0.4511 P   0  0  0  0  0  0  0  0  0  0  0  0
   -4.0571    1.6400    2.4275 O   0  0  0  0  0  0  0  0  0  0  0  0
   -1.9051    2.2153    2.4840 O   0  0  0  0  0  0  0  0  0  0  0  0
    0.2943    2.3654    2.8453 O   0  0  0  0  0  0  0  0  0  0  0  0
    1.6107    0.3147   -0.2565 C   0  0  1  0  0  3  0  0  0  0  0  0
    1.0049    1.4559    0.2174 C   0  0  2  0  0  3  0  0  0  0  0  0
   -0.3673    1.3170    0.8028 C   0  0  2  0  0  3  0  0  0  0  0  0
   -1.4732    0.9616   -0.0818 C   0  0  1  0  0  3  0  0  0  0  0  0
   -2.7122    0.7560    0.6464 C   0  0  1  0  0  3  0  0  0  0  0  0
   -2.9761    1.5347    1.8956 C   0  0  0  0  0  0  0  0  0  0  0  0
   -0.5938    1.9982    2.1009 C   0  0  0  0  0  0  0  0  0  0  0  0
    0.9459   -2.5803   -0.7440 C   0  0  0  0  0  0  0  0  0  0  0  0
    1.1703   -2.3697   -2.1203 C   0  0  0  0  0  0  0  0  0  0  0  0
    1.1080   -3.4481   -3.0156 C   0  0  0  0  0  0  0  0  0  0  0  0
    0.8200   -4.7409   -2.5534 C   0  0  0  0  0  0  0  0  0  0  0  0
    0.5791   -4.9543   -1.1863 C   0  0  0  0  0  0  0  0  0  0  0  0
    0.6332   -3.8809   -0.2876 C   0  0  0  0  0  0  0  0  0  0  0  0
    2.0319   -1.6030    1.8145 C   0  0  0  0  0  0  0  0  0  0  0  0
    2.8318   -2.7629    1.8367 C   0  0  0  0  0  0  0  0  0  0  0  0
    3.7274   -2.9773    2.8971 C   0  0  0  0  0  0  0  0  0  0  0  0
    3.8361   -2.0372    3.9325 C   0  0  0  0  0  0  0  0  0  0  0  0
    3.0488   -0.8739    3.9041 C   0  0  0  0  0  0  0  0  0  0  0  0
    2.1485   -0.6535    2.8538 C   0  0  0  0  0  0  0  0  0  0  0  0
    2.7594    0.2498   -1.1833 C   0  0  0  0  0  0  0  0  0  0  0  0
    3.8868   -0.5660   -0.9377 C   0  0  0  0  0  0  0  0  0  0  0  0
    4.9294   -0.6361   -1.8726 C   0  0  0  0  0  0  0  0  0  0  0  0
    4.8608    0.0960   -3.0684 C   0  0  0  0  0  0  0  0  0  0  0  0
    3.7390    0.9028   -3.3265 C   0  0  0  0  0  0  0  0  0  0  0  0
    2.6975    0.9805   -2.3951 C   0  0  0  0  0  0  0  0  0  0  0  0
    1.6055    2.8086    0.1541 C   0  0  0  0  0  0  0  0  0  0  0  0
    3.0093    2.9882    0.1823 C   0  0  0  0  0  0  0  0  0  0  0  0
    3.5709    4.2683    0.1363 C   0  0  0  0  0  0  0  0  0  0  0  0
    2.7465    5.4040    0.0673 C   0  0  0  0  0  0  0  0  0  0  0  0
    1.3522    5.2463    0.0699 C   0  0  0  0  0  0  0  0  0  0  0  0
    0.7903    3.9650    0.1227 C   0  0  0  0  0  0  0  0  0  0  0  0
   -1.3240    0.9226   -1.5717 C   0  0  0  0  0  0  0  0  0  0  0  0
   -1.4852   -0.2602   -2.3197 C   0  0  0  0  0  0  0  0  0  0  0  0
   -1.3404   -0.2539   -3.7139 C   0  0  0  0  0  0  0  0  0  0  0  0
   -1.0296    0.9359   -4.3902 C   0  0  0  0  0  0  0  0  0  0  0  0
   -0.8757    2.1236   -3.6582 C   0  0  0  0  0  0  0  0  0  0  0  0
   -1.0251    2.1167   -2.2633 C   0  0  0  0  0  0  0  0  0  0  0  0
   -3.9695    0.2993   -0.0264 C   0  0  0  0  0  0  0  0  0  0  0  0
   -4.4018    0.8714   -1.2406 C   0  0  0  0  0  0  0  0  0  0  0  0
   -5.6018    0.4575   -1.8383 C   0  0  0  0  0  0  0  0  0  0  0  0
   -6.3934   -0.5263   -1.2280 C   0  0  0  0  0  0  0  0  0  0  0  0
   -5.9838   -1.0842   -0.0060 C   0  0  0  0  0  0  0  0  0  0  0  0
   -4.7869   -0.6704    0.5907 C   0  0  0  0  0  0  0  0  0  0  0  0
    1.3871   -1.3638   -2.5009 H   0  0  0  0  0  0  0  0  0  0  0  0
    1.2870   -3.2693   -4.0867 H   0  0  0  0  0  0  0  0  0  0  0  0
    0.7728   -5.5834   -3.2598 H   0  0  0  0  0  0  0  0  0  0  0  0
    0.3344   -5.9614   -0.8169 H   0  0  0  0  0  0  0  0  0  0  0  0
    0.4125   -4.0548    0.7769 H   0  0  0  0  0  0  0  0  0  0  0  0
    2.7702   -3.4964    1.0203 H   0  0  0  0  0  0  0  0  0  0  0  0
    4.3466   -3.8872    2.9077 H   0  0  0  0  0  0  0  0  0  0  0  0
    4.5387   -2.2085    4.7620 H   0  0  0  0  0  0  0  0  0  0  0  0
    3.1324   -0.1262    4.7069 H   0  0  0  0  0  0  0  0  0  0  0  0
    1.5528    0.2736    2.8406 H   0  0  0  0  0  0  0  0  0  0  0  0
    3.9493   -1.1379   -0.0013 H   0  0  0  0  0  0  0  0  0  0  0  0
    5.8043   -1.2702   -1.6635 H   0  0  0  0  0  0  0  0  0  0  0  0
    5.6788    0.0347   -3.8020 H   0  0  0  0  0  0  0  0  0  0  0  0
    3.6723    1.4722   -4.2661 H   0  0  0  0  0  0  0  0  0  0  0  0
    1.8066    1.5923   -2.6012 H   0  0  0  0  0  0  0  0  0  0  0  0
    3.6644    2.1108    0.2643 H   0  0  0  0  0  0  0  0  0  0  0  0
    4.6651    4.3817    0.1662 H   0  0  0  0  0  0  0  0  0  0  0  0
    3.1904    6.4103    0.0309 H   0  0  0  0  0  0  0  0  0  0  0  0
    0.6946    6.1280    0.0424 H   0  0  0  0  0  0  0  0  0  0  0  0
   -0.3044    3.8626    0.1523 H   0  0  0  0  0  0  0  0  0  0  0  0
   -1.7184   -1.1985   -1.8005 H   0  0  0  0  0  0  0  0  0  0  0  0
   -1.4631   -1.1943   -4.2723 H   0  0  0  0  0  0  0  0  0  0  0  0
   -0.9095    0.9385   -5.4841 H   0  0  0  0  0  0  0  0  0  0  0  0
   -0.6375    3.0665   -4.1737 H   0  0  0  0  0  0  0  0  0  0  0  0
   -0.9070    3.0539   -1.7031 H   0  0  0  0  0  0  0  0  0  0  0  0
   -3.8001    1.6553   -1.7205 H   0  0  0  0  0  0  0  0  0  0  0  0
   -5.9198    0.9137   -2.7881 H   0  0  0  0  0  0  0  0  0  0  0  0
   -7.3327   -0.8534   -1.6993 H   0  0  0  0  0  0  0  0  0  0  0  0
   -6.6025   -1.8484    0.4884 H   0  0  0  0  0  0  0  0  0  0  0  0
   -4.4719   -1.1012    1.5520 H   0  0  0  0  0  0  0  0  0  0  0  0
  1 18  1  0  0  0  0
  5  1  1  1  0  0  0
  6  5  1  6  0  0  0
  7  6  1  6  0  0  0
  7 11  1  0  0  0  0
  8 36  1  6  0  0  0
  8  9  1  0  0  0  0
  8  7  1  0  0  0  0
  9 42  1  6  0  0  0
  9 10  1  0  0  0  0
 10  2  2  0  0  0  0
 10  3  1  0  0  0  0
 11  3  1  0  0  0  0
 11  4  2  0  0  0  0
 12 17  1  0  0  0  0
 12  1  1  0  0  0  0
 13 12  2  0  0  0  0
 14 15  2  0  0  0  0
 14 13  1  0  0  0  0
 15 16  1  0  0  0  0
 16 51  1  0  0  0  0
 16 17  2  0  0  0  0
 17 52  1  0  0  0  0
 18 19  2  0  0  0  0
 18 23  1  0  0  0  0
 19 20  1  0  0  0  0
 20 54  1  0  0  0  0
 20 21  2  0  0  0  0
 21 55  1  0  0  0  0
 22 21  1  0  0  0  0
 22 56  1  0  0  0  0
 23 22  2  0  0  0  0
 24 25  1  0  0  0  0
 24  5  1  0  0  0  0
 25 58  1  0  0  0  0
 26 59  1  0  0  0  0
 26 25  2  0  0  0  0
 27 26  1  0  0  0  0
 28 27  2  0  0  0  0
 28 29  1  0  0  0  0
 29 24  2  0  0  0  0
 30 31  1  0  0  0  0
 30  6  1  0  0  0  0
 31 63  1  0  0  0  0
 32 64  1  0  0  0  0
 32 31  2  0  0  0  0
 33 34  2  0  0  0  0
 33 32  1  0  0  0  0
 34 35  1  0  0  0  0
 35 67  1  0  0  0  0
 35 30  2  0  0  0  0
 37 68  1  0  0  0  0
 37 36  2  0  0  0  0
 38 37  1  0  0  0  0
 39 38  2  0  0  0  0
 39 40  1  0  0  0  0
 40 41  2  0  0  0  0
 41 72  1  0  0  0  0
 41 36  1  0  0  0  0
 42 47  1  0  0  0  0
 43 42  2  0  0  0  0
 44 43  1  0  0  0  0
 44 45  2  0  0  0  0
 45 46  1  0  0  0  0
 46 76  1  0  0  0  0
 46 47  2  0  0  0  0
 47 77  1  0  0  0  0
 48 13  1  0  0  0  0
 49 14  1  0  0  0  0
 50 15  1  0  0  0  0
 53 19  1  0  0  0  0
 57 23  1  0  0  0  0
 60 27  1  0  0  0  0
 61 28  1  0  0  0  0
 62 29  1  0  0  0  0
 65 33  1  0  0  0  0
 66 34  1  0  0  0  0
 69 38  1  0  0  0  0
 70 39  1  0  0  0  0
 71 40  1  0  0  0  0
 73 43  1  0  0  0  0
 74 44  1  0  0  0  0
 75 45  1  0  0  0  0
M  END
