5
 OpenBabel05122313113D

 59 61  0  0  1  0  0  0  0  0999 V2000
   -1.2751    0.3479    0.5409 P   0  0  0  0  0  0  0  0  0  0  0  0
    2.7718    1.4247    1.8257 O   0  0  0  0  0  0  0  0  0  0  0  0
    3.3950    1.2341   -0.3487 O   0  0  0  0  0  0  0  0  0  0  0  0
    2.2305   -0.5713    0.6125 C   0  0  2  0  0  3  0  0  0  0  0  0
    1.4046   -1.2313    1.6246 C   0  0  1  0  0  3  0  0  0  0  0  0
    1.1292   -2.5635    1.1462 C   0  0  1  0  0  3  0  0  0  0  0  0
    1.8321   -2.7540   -0.1258 C   0  0  0  0  0  0  0  0  0  0  0  0
    2.5126   -1.5423   -0.4529 C   0  0  0  0  0  0  0  0  0  0  0  0
    2.8107    0.7784    0.7868 C   0  0  0  0  0  0  0  0  0  0  0  0
    1.0158   -0.6966    2.9751 C   0  0  0  0  0  0  0  0  0  0  0  0
    0.0319    0.4864    3.0311 C   0  0  0  0  0  0  0  0  0  0  0  0
   -1.3357    0.2285    2.3861 C   0  0  0  0  0  0  0  0  0  0  0  0
    0.3493   -3.6374    1.8302 C   0  0  0  0  0  0  0  0  0  0  0  0
    1.7716   -4.0175   -0.9187 C   0  0  0  0  0  0  0  0  0  0  0  0
    3.3186   -1.2987   -1.6850 C   0  0  0  0  0  0  0  0  0  0  0  0
   -0.9664    2.1472    0.2772 C   0  0  0  0  0  0  0  0  0  0  0  0
    0.2047    2.6066   -0.3516 C   0  0  0  0  0  0  0  0  0  0  0  0
    0.4199    3.9857   -0.5054 C   0  0  0  0  0  0  0  0  0  0  0  0
   -0.5236    4.9090   -0.0314 C   0  0  0  0  0  0  0  0  0  0  0  0
   -1.6985    4.4522    0.5889 C   0  0  0  0  0  0  0  0  0  0  0  0
   -1.9230    3.0768    0.7379 C   0  0  0  0  0  0  0  0  0  0  0  0
   -3.0013    0.1488   -0.0368 C   0  0  0  0  0  0  0  0  0  0  0  0
   -3.2414    0.2772   -1.4215 C   0  0  0  0  0  0  0  0  0  0  0  0
   -4.5467    0.1653   -1.9143 C   0  0  0  0  0  0  0  0  0  0  0  0
   -5.6176   -0.0845   -1.0391 C   0  0  0  0  0  0  0  0  0  0  0  0
   -5.3782   -0.2254    0.3354 C   0  0  0  0  0  0  0  0  0  0  0  0
   -4.0722   -0.1100    0.8393 C   0  0  0  0  0  0  0  0  0  0  0  0
    3.9360    2.5713   -0.2989 C   0  0  0  0  0  0  0  0  0  0  0  0
    4.1367    3.0407   -1.7252 C   0  0  0  0  0  0  0  0  0  0  0  0
    0.5997   -1.5357    3.5692 H   0  0  0  0  0  0  0  0  0  0  0  0
    1.9510   -0.3725    3.4757 H   0  0  0  0  0  0  0  0  0  0  0  0
    0.5077    1.3826    2.5832 H   0  0  0  0  0  0  0  0  0  0  0  0
   -0.1274    0.7299    4.1019 H   0  0  0  0  0  0  0  0  0  0  0  0
   -2.0712    0.9784    2.7421 H   0  0  0  0  0  0  0  0  0  0  0  0
   -1.7273   -0.7790    2.6415 H   0  0  0  0  0  0  0  0  0  0  0  0
    1.0193   -4.4642    2.1474 H   0  0  0  0  0  0  0  0  0  0  0  0
   -0.4115   -4.0463    1.1343 H   0  0  0  0  0  0  0  0  0  0  0  0
   -0.1799   -3.2573    2.7237 H   0  0  0  0  0  0  0  0  0  0  0  0
    2.3309   -3.9355   -1.8683 H   0  0  0  0  0  0  0  0  0  0  0  0
    0.7123   -4.2474   -1.1631 H   0  0  0  0  0  0  0  0  0  0  0  0
    2.1846   -4.8692   -0.3389 H   0  0  0  0  0  0  0  0  0  0  0  0
    4.3085   -0.8757   -1.4299 H   0  0  0  0  0  0  0  0  0  0  0  0
    2.7953   -0.5650   -2.3333 H   0  0  0  0  0  0  0  0  0  0  0  0
    3.4553   -2.2334   -2.2588 H   0  0  0  0  0  0  0  0  0  0  0  0
    0.9154    1.8766   -0.7639 H   0  0  0  0  0  0  0  0  0  0  0  0
    1.3302    4.3405   -1.0124 H   0  0  0  0  0  0  0  0  0  0  0  0
   -0.3507    5.9889   -0.1554 H   0  0  0  0  0  0  0  0  0  0  0  0
   -2.4497    5.1710    0.9500 H   0  0  0  0  0  0  0  0  0  0  0  0
   -2.8593    2.7239    1.1987 H   0  0  0  0  0  0  0  0  0  0  0  0
   -2.3918    0.4383   -2.1041 H   0  0  0  0  0  0  0  0  0  0  0  0
   -4.7280    0.2616   -2.9955 H   0  0  0  0  0  0  0  0  0  0  0  0
   -6.6418   -0.1769   -1.4317 H   0  0  0  0  0  0  0  0  0  0  0  0
   -6.2115   -0.4294    1.0249 H   0  0  0  0  0  0  0  0  0  0  0  0
   -3.9020   -0.2305    1.9186 H   0  0  0  0  0  0  0  0  0  0  0  0
    3.2347    3.2163    0.2691 H   0  0  0  0  0  0  0  0  0  0  0  0
    4.8883    2.5477    0.2737 H   0  0  0  0  0  0  0  0  0  0  0  0
    4.5533    4.0674   -1.7317 H   0  0  0  0  0  0  0  0  0  0  0  0
    3.1752    3.0481   -2.2769 H   0  0  0  0  0  0  0  0  0  0  0  0
    4.8379    2.3796   -2.2719 H   0  0  0  0  0  0  0  0  0  0  0  0
  1 12  1  0  0  0  0
  3 28  1  0  0  0  0
  3  9  1  0  0  0  0
  4  9  1  1  0  0  0
  4  5  1  0  0  0  0
  5 10  1  1  0  0  0
  6  5  1  0  0  0  0
  6 13  1  1  0  0  0
  7  6  1  0  0  0  0
  8  7  2  0  0  0  0
  8  4  1  0  0  0  0
  9  2  2  0  0  0  0
 10 11  1  0  0  0  0
 10 31  1  0  0  0  0
 10 30  1  0  0  0  0
 11 33  1  0  0  0  0
 12 35  1  0  0  0  0
 12 34  1  0  0  0  0
 12 11  1  0  0  0  0
 13 36  1  0  0  0  0
 13 38  1  0  0  0  0
 14 41  1  0  0  0  0
 14  7  1  0  0  0  0
 15 42  1  0  0  0  0
 15  8  1  0  0  0  0
 16  1  1  0  0  0  0
 16 21  1  0  0  0  0
 17 16  2  0  0  0  0
 18 17  1  0  0  0  0
 18 19  2  0  0  0  0
 19 20  1  0  0  0  0
 20 21  2  0  0  0  0
 20 48  1  0  0  0  0
 21 49  1  0  0  0  0
 22  1  1  0  0  0  0
 22 27  1  0  0  0  0
 23 22  2  0  0  0  0
 24 23  1  0  0  0  0
 24 25  2  0  0  0  0
 25 26  1  0  0  0  0
 26 27  2  0  0  0  0
 26 53  1  0  0  0  0
 27 54  1  0  0  0  0
 28 55  1  0  0  0  0
 28 56  1  0  0  0  0
 29 28  1  0  0  0  0
 32 11  1  0  0  0  0
 37 13  1  0  0  0  0
 39 14  1  0  0  0  0
 40 14  1  0  0  0  0
 43 15  1  0  0  0  0
 44 15  1  0  0  0  0
 45 17  1  0  0  0  0
 46 18  1  0  0  0  0
 47 19  1  0  0  0  0
 50 23  1  0  0  0  0
 51 24  1  0  0  0  0
 52 25  1  0  0  0  0
 57 29  1  0  0  0  0
 58 29  1  0  0  0  0
 59 29  1  0  0  0  0
M  END
