2
 OpenBabel05122313113D

 14 13  0  0  0  0  0  0  0  0999 V2000
    3.1544   -3.1686    1.6966 O   0  0  0  0  0  0  0  0  0  0  0  0
    0.4660   -1.6952   -0.0260 C   0  0  0  0  0  1  0  0  0  0  0  0
    0.7829   -2.7404   -0.7860 C   0  0  0  0  0  3  0  0  0  0  0  0
    0.9406   -4.1593   -0.2808 C   0  0  0  0  0  0  0  0  0  0  0  0
    2.3943   -4.6729   -0.1451 C   0  0  0  0  0  0  0  0  0  0  0  0
    2.9994   -4.5169    1.2517 C   0  0  0  0  0  0  0  0  0  0  0  0
    4.0131   -2.8402    1.3775 H   0  0  0  0  0  0  0  0  0  0  0  0
    0.9117   -2.5857   -1.8764 H   0  0  0  0  0  0  0  0  0  0  0  0
    0.4246   -4.2603    0.6976 H   0  0  0  0  0  0  0  0  0  0  0  0
    0.3900   -4.8130   -0.9898 H   0  0  0  0  0  0  0  0  0  0  0  0
    2.4128   -5.7596   -0.3766 H   0  0  0  0  0  0  0  0  0  0  0  0
    3.0484   -4.1889   -0.9029 H   0  0  0  0  0  0  0  0  0  0  0  0
    2.3297   -5.0066    1.9916 H   0  0  0  0  0  0  0  0  0  0  0  0
    3.9707   -5.0594    1.2988 H   0  0  0  0  0  0  0  0  0  0  0  0
  3  4  1  0  0  0  0
  3  2  1  0  0  0  0
  4  5  1  0  0  0  0
  4  9  1  0  0  0  0
  5  6  1  0  0  0  0
  6 14  1  0  0  0  0
  6  1  1  0  0  0  0
  6 13  1  0  0  0  0
  7  1  1  0  0  0  0
  8  3  1  0  0  0  0
 10  4  1  0  0  0  0
 11  5  1  0  0  0  0
 12  5  1  0  0  0  0
M  END
