3
 OpenBabel05122313113D

 17 17  0  0  0  0  0  0  0  0999 V2000
    5.7613   -1.4052   -1.5017 O   0  0  0  0  0  0  0  0  0  0  0  0
    6.0952    0.2072    0.0588 O   0  0  0  0  0  0  0  0  0  0  0  0
    1.0400    0.0898   -0.1694 C   0  0  0  0  0  3  0  0  0  0  0  0
    2.0000    0.8248    0.5776 C   0  0  0  0  0  0  0  0  0  0  0  0
    1.6700    1.5524    1.3397 H   0  0  0  0  0  0  0  0  0  0  0  0
    3.3793    0.6293    0.4194 C   0  0  0  0  0  0  0  0  0  0  0  0
    4.0991    1.2073    1.0169 H   0  0  0  0  0  0  0  0  0  0  0  0
    3.8568   -0.3233   -0.5033 C   0  0  0  0  0  0  0  0  0  0  0  0
    2.9229   -1.0741   -1.2475 C   0  0  0  0  0  0  0  0  0  0  0  0
    3.3082   -1.8225   -1.9569 H   0  0  0  0  0  0  0  0  0  0  0  0
    1.5488   -0.8741   -1.0771 C   0  0  0  0  0  0  0  0  0  0  0  0
    0.8534   -1.4991   -1.6575 H   0  0  0  0  0  0  0  0  0  0  0  0
    5.3042   -0.5842   -0.7215 C   0  0  0  0  0  0  0  0  0  0  0  0
    7.4993    0.0037   -0.1032 C   0  0  0  0  0  0  0  0  0  0  0  0
    7.7821   -1.0404    0.1431 H   0  0  0  0  0  0  0  0  0  0  0  0
    7.9955    0.7091    0.5875 H   0  0  0  0  0  0  0  0  0  0  0  0
    7.8131    0.2024   -1.1485 H   0  0  0  0  0  0  0  0  0  0  0  0
  1 13  2  0  0  0  0
  3  4  1  0  0  0  0
  4  5  1  0  0  0  0
  6  4  2  0  0  0  0
  6  7  1  0  0  0  0
  8  6  1  0  0  0  0
  9 11  1  0  0  0  0
  9  8  2  0  0  0  0
 10  9  1  0  0  0  0
 11  3  2  0  0  0  0
 12 11  1  0  0  0  0
 13  8  1  0  0  0  0
 13  2  1  0  0  0  0
 14  2  1  0  0  0  0
 14 15  1  0  0  0  0
 14 16  1  0  0  0  0
 17 14  1  0  0  0  0
M  END
