9
 OpenBabel05122313113D

 31 32  0  0  0  0  0  0  0  0999 V2000
    4.3783    2.3110   -0.2174 O   0  0  0  0  0  0  0  0  0  0  0  0
    5.0266   -1.5007    1.6157 O   0  0  0  0  0  0  0  0  0  0  0  0
    4.7067   -2.1847    0.9913 H   0  0  0  0  0  0  0  0  0  0  0  0
    3.2291   -2.1557   -0.5082 O   0  0  0  0  0  0  0  0  0  0  0  0
    0.3146   -1.2326   -0.2660 N   0  0  0  0  0  0  0  0  0  0  0  0
   -0.2048    0.8878   -0.0652 N   0  0  0  0  0  0  0  0  0  0  0  0
    2.1263    1.8160   -0.1427 N   0  0  0  0  0  0  0  0  0  0  0  0
    3.7864    0.0978   -0.4209 N   0  0  0  0  0  0  0  0  0  0  0  0
   -0.7400   -0.3953   -0.1295 C   0  0  0  0  0  2  0  0  0  0  0  0
    1.1745    0.8244   -0.1651 C   0  0  0  0  0  0  0  0  0  0  0  0
    3.4985    1.4612   -0.2549 C   0  0  0  0  0  0  0  0  0  0  0  0
    2.8649   -0.9791   -0.4128 C   0  0  0  0  0  0  0  0  0  0  0  0
    1.5076   -0.5175   -0.2932 C   0  0  0  0  0  0  0  0  0  0  0  0
    0.2151   -2.6828   -0.3686 C   0  0  0  0  0  0  0  0  0  0  0  0
   -0.8574   -2.9445   -0.3143 H   0  0  0  0  0  0  0  0  0  0  0  0
    0.7727   -3.1610    0.4580 H   0  0  0  0  0  0  0  0  0  0  0  0
    0.6495   -3.0277   -1.3253 H   0  0  0  0  0  0  0  0  0  0  0  0
   -1.0577    2.0714    0.0818 C   0  0  0  0  0  0  0  0  0  0  0  0
   -0.8237    2.6069    1.0201 H   0  0  0  0  0  0  0  0  0  0  0  0
   -2.1187    1.7395    0.1188 H   0  0  0  0  0  0  0  0  0  0  0  0
   -0.9316    2.7513   -0.7806 H   0  0  0  0  0  0  0  0  0  0  0  0
    1.8264    3.2374    0.0271 C   0  0  0  0  0  0  0  0  0  0  0  0
    1.1950    3.6130   -0.7993 H   0  0  0  0  0  0  0  0  0  0  0  0
    2.7980    3.7612    0.0107 H   0  0  0  0  0  0  0  0  0  0  0  0
    1.3274    3.4267    0.9960 H   0  0  0  0  0  0  0  0  0  0  0  0
    5.2085   -0.2644   -0.5031 C   0  0  0  0  0  0  0  0  0  0  0  0
    5.7484    0.5803   -0.9685 H   0  0  0  0  0  0  0  0  0  0  0  0
    5.2664   -1.1516   -1.1631 H   0  0  0  0  0  0  0  0  0  0  0  0
    5.7997   -0.5849    0.8752 C   0  0  0  0  0  0  0  0  0  0  0  0
    6.8512   -0.9325    0.7080 H   0  0  0  0  0  0  0  0  0  0  0  0
    5.8636    0.3487    1.4741 H   0  0  0  0  0  0  0  0  0  0  0  0
  3  2  1  0  0  0  0
  4 12  2  0  0  0  0
  5  9  1  0  0  0  0
  6 18  1  0  0  0  0
  7 22  1  0  0  0  0
  8 12  1  0  0  0  0
  8 11  1  0  0  0  0
  9  6  1  0  0  0  0
 10  7  1  0  0  0  0
 10  6  1  0  0  0  0
 11  1  2  0  0  0  0
 11  7  1  0  0  0  0
 12 13  1  0  0  0  0
 13  5  1  0  0  0  0
 13 10  2  0  0  0  0
 14 15  1  0  0  0  0
 14  5  1  0  0  0  0
 14 16  1  0  0  0  0
 17 14  1  0  0  0  0
 18 20  1  0  0  0  0
 18 19  1  0  0  0  0
 21 18  1  0  0  0  0
 22 25  1  0  0  0  0
 23 22  1  0  0  0  0
 24 22  1  0  0  0  0
 26  8  1  0  0  0  0
 26 29  1  0  0  0  0
 27 26  1  0  0  0  0
 28 26  1  0  0  0  0
 29 31  1  0  0  0  0
 29  2  1  0  0  0  0
 30 29  1  0  0  0  0
M  END
