1
 OpenBabel05122313113D

 80 82  0  0  0  0  0  0  0  0999 V2000
    0.7959   -0.1271    0.9395 C   0  0  0  0  0  2  0  0  0  0  0  0
    0.1988   -0.2422    2.1632 N   0  0  0  0  0  0  0  0  0  0  0  0
    1.1481   -0.2928    3.1753 C   0  0  0  0  0  0  0  0  0  0  0  0
    0.8763   -0.3832    4.2306 H   0  0  0  0  0  0  0  0  0  0  0  0
    2.3769   -0.2023    2.5732 C   0  0  0  0  0  0  0  0  0  0  0  0
    3.3895   -0.1933    2.9857 H   0  0  0  0  0  0  0  0  0  0  0  0
    2.1392   -0.1043    1.2073 N   0  0  0  0  0  0  0  0  0  0  0  0
   -1.2580   -0.3373    2.3652 C   0  0  0  0  0  0  0  0  0  0  0  0
   -1.6774   -0.1473    1.3563 H   0  0  0  0  0  0  0  0  0  0  0  0
   -1.6430   -1.7575    2.8082 C   0  0  0  0  0  0  0  0  0  0  0  0
   -2.7216   -1.7415    3.0681 H   0  0  0  0  0  0  0  0  0  0  0  0
   -1.1117   -1.9901    3.7574 H   0  0  0  0  0  0  0  0  0  0  0  0
   -1.3671   -2.8594    1.7737 C   0  0  0  0  0  0  0  0  0  0  0  0
   -0.2815   -2.8698    1.5302 H   0  0  0  0  0  0  0  0  0  0  0  0
   -1.5781   -3.8385    2.2565 H   0  0  0  0  0  0  0  0  0  0  0  0
   -2.1715   -2.7554    0.4675 C   0  0  0  0  0  0  0  0  0  0  0  0
   -1.8407   -1.8602   -0.1062 H   0  0  0  0  0  0  0  0  0  0  0  0
   -1.9003   -3.6173   -0.1802 H   0  0  0  0  0  0  0  0  0  0  0  0
   -3.6902   -2.7255    0.6612 C   0  0  0  0  0  0  0  0  0  0  0  0
   -3.9716   -1.8471    1.2827 H   0  0  0  0  0  0  0  0  0  0  0  0
   -3.9971   -3.6157    1.2557 H   0  0  0  0  0  0  0  0  0  0  0  0
   -4.5115   -2.6872   -0.6362 C   0  0  0  0  0  0  0  0  0  0  0  0
   -4.3140   -3.6128   -1.2210 H   0  0  0  0  0  0  0  0  0  0  0  0
   -5.5883   -2.7292   -0.3582 H   0  0  0  0  0  0  0  0  0  0  0  0
   -4.2811   -1.4649   -1.5413 C   0  0  0  0  0  0  0  0  0  0  0  0
   -3.2914   -1.5224   -2.0438 H   0  0  0  0  0  0  0  0  0  0  0  0
   -5.0315   -1.4953   -2.3619 H   0  0  0  0  0  0  0  0  0  0  0  0
   -4.3737   -0.1139   -0.8229 C   0  0  0  0  0  0  0  0  0  0  0  0
   -5.2456   -0.1040   -0.1272 H   0  0  0  0  0  0  0  0  0  0  0  0
   -3.4724    0.0040   -0.1841 H   0  0  0  0  0  0  0  0  0  0  0  0
   -4.4705    1.0789   -1.7796 C   0  0  0  0  0  0  0  0  0  0  0  0
   -5.4019    0.9727   -2.3796 H   0  0  0  0  0  0  0  0  0  0  0  0
   -3.6267    1.0165   -2.5009 H   0  0  0  0  0  0  0  0  0  0  0  0
   -4.4556    2.4706   -1.1248 C   0  0  0  0  0  0  0  0  0  0  0  0
   -4.6834    3.2152   -1.9165 H   0  0  0  0  0  0  0  0  0  0  0  0
   -5.2874    2.5571   -0.3879 H   0  0  0  0  0  0  0  0  0  0  0  0
   -3.1224    2.8571   -0.4532 C   0  0  0  0  0  0  0  0  0  0  0  0
   -2.2920    2.3722   -1.0139 H   0  0  0  0  0  0  0  0  0  0  0  0
   -2.9515    3.9510   -0.5555 H   0  0  0  0  0  0  0  0  0  0  0  0
   -2.9963    2.4907    1.0326 C   0  0  0  0  0  0  0  0  0  0  0  0
   -3.3356    1.4441    1.1778 H   0  0  0  0  0  0  0  0  0  0  0  0
   -3.6940    3.1121    1.6390 H   0  0  0  0  0  0  0  0  0  0  0  0
   -1.5636    2.6417    1.5513 C   0  0  0  0  0  0  0  0  0  0  0  0
   -0.8900    2.0782    0.8676 H   0  0  0  0  0  0  0  0  0  0  0  0
   -1.2458    3.7032    1.4556 H   0  0  0  0  0  0  0  0  0  0  0  0
   -1.3247    2.1863    2.9985 C   0  0  0  0  0  0  0  0  0  0  0  0
   -1.8520    2.8682    3.7006 H   0  0  0  0  0  0  0  0  0  0  0  0
   -0.2427    2.2977    3.2305 H   0  0  0  0  0  0  0  0  0  0  0  0
   -1.7647    0.7494    3.3249 C   0  0  0  0  0  0  0  0  0  0  0  0
   -1.4647    0.4958    4.3660 H   0  0  0  0  0  0  0  0  0  0  0  0
   -2.8725    0.6787    3.3149 H   0  0  0  0  0  0  0  0  0  0  0  0
    3.1523    0.0180    0.1913 C   0  0  0  0  0  0  0  0  0  0  0  0
    3.5215    1.3142   -0.2372 C   0  0  0  0  0  0  0  0  0  0  0  0
    4.4964    1.4032   -1.2485 C   0  0  0  0  0  0  0  0  0  0  0  0
    4.8039    2.3942   -1.6148 H   0  0  0  0  0  0  0  0  0  0  0  0
    5.0694    0.2517   -1.8011 C   0  0  0  0  0  0  0  0  0  0  0  0
    5.8260    0.3440   -2.5949 H   0  0  0  0  0  0  0  0  0  0  0  0
    4.6792   -1.0180   -1.3562 C   0  0  0  0  0  0  0  0  0  0  0  0
    5.1297   -1.9141   -1.8079 H   0  0  0  0  0  0  0  0  0  0  0  0
    3.7086   -1.1661   -0.3485 C   0  0  0  0  0  0  0  0  0  0  0  0
    2.8704    2.5710    0.3265 C   0  0  0  0  0  0  0  0  0  0  0  0
    2.2211    2.2649    1.1721 H   0  0  0  0  0  0  0  0  0  0  0  0
    3.2305   -2.5466    0.0857 C   0  0  0  0  0  0  0  0  0  0  0  0
    2.6906   -2.4270    1.0480 H   0  0  0  0  0  0  0  0  0  0  0  0
    3.9100    3.5572    0.8832 C   0  0  0  0  0  0  0  0  0  0  0  0
    4.5490    3.0836    1.6556 H   0  0  0  0  0  0  0  0  0  0  0  0
    3.4056    4.4318    1.3419 H   0  0  0  0  0  0  0  0  0  0  0  0
    4.5770    3.9432    0.0850 H   0  0  0  0  0  0  0  0  0  0  0  0
    1.9615    3.2314   -0.7255 C   0  0  0  0  0  0  0  0  0  0  0  0
    1.1967    2.5167   -1.0938 H   0  0  0  0  0  0  0  0  0  0  0  0
    2.5473    3.5820   -1.6000 H   0  0  0  0  0  0  0  0  0  0  0  0
    1.4363    4.1070   -0.2921 H   0  0  0  0  0  0  0  0  0  0  0  0
    4.3886   -3.5246    0.3337 C   0  0  0  0  0  0  0  0  0  0  0  0
    4.0019   -4.4827    0.7360 H   0  0  0  0  0  0  0  0  0  0  0  0
    5.1217   -3.1167    1.0586 H   0  0  0  0  0  0  0  0  0  0  0  0
    4.9348   -3.7629   -0.6019 H   0  0  0  0  0  0  0  0  0  0  0  0
    2.2232   -3.1096   -0.9351 C   0  0  0  0  0  0  0  0  0  0  0  0
    1.8334   -4.0922   -0.5983 H   0  0  0  0  0  0  0  0  0  0  0  0
    2.7015   -3.2504   -1.9261 H   0  0  0  0  0  0  0  0  0  0  0  0
    1.3626   -2.4226   -1.0732 H   0  0  0  0  0  0  0  0  0  0  0  0
  1  7  1  0  0  0  0
  1  2  1  0  0  0  0
  2  8  1  0  0  0  0
  2  3  1  0  0  0  0
  3  4  1  0  0  0  0
  5  6  1  0  0  0  0
  5  3  2  0  0  0  0
  7  5  1  0  0  0  0
  8 10  1  0  0  0  0
  8 49  1  0  0  0  0
  9  8  1  0  0  0  0
 10 11  1  0  0  0  0
 10 12  1  0  0  0  0
 13 15  1  0  0  0  0
 13 10  1  0  0  0  0
 14 13  1  0  0  0  0
 16 19  1  0  0  0  0
 16 13  1  0  0  0  0
 17 16  1  0  0  0  0
 18 16  1  0  0  0  0
 19 21  1  0  0  0  0
 19 20  1  0  0  0  0
 22 24  1  0  0  0  0
 22 19  1  0  0  0  0
 23 22  1  0  0  0  0
 25 28  1  0  0  0  0
 25 22  1  0  0  0  0
 26 25  1  0  0  0  0
 27 25  1  0  0  0  0
 28 30  1  0  0  0  0
 28 29  1  0  0  0  0
 31 34  1  0  0  0  0
 31 28  1  0  0  0  0
 32 31  1  0  0  0  0
 33 31  1  0  0  0  0
 34 37  1  0  0  0  0
 34 36  1  0  0  0  0
 35 34  1  0  0  0  0
 37 40  1  0  0  0  0
 38 37  1  0  0  0  0
 39 37  1  0  0  0  0
 40 41  1  0  0  0  0
 40 43  1  0  0  0  0
 40 42  1  0  0  0  0
 43 46  1  0  0  0  0
 44 43  1  0  0  0  0
 45 43  1  0  0  0  0
 46 48  1  0  0  0  0
 46 49  1  0  0  0  0
 46 47  1  0  0  0  0
 49 50  1  0  0  0  0
 51 49  1  0  0  0  0
 52  7  1  0  0  0  0
 53 52  1  0  0  0  0
 53 61  1  0  0  0  0
 54 53  2  0  0  0  0
 55 54  1  0  0  0  0
 56 58  2  0  0  0  0
 56 54  1  0  0  0  0
 57 56  1  0  0  0  0
 58 60  1  0  0  0  0
 59 58  1  0  0  0  0
 60 63  1  0  0  0  0
 60 52  2  0  0  0  0
 61 65  1  0  0  0  0
 61 62  1  0  0  0  0
 63 73  1  0  0  0  0
 63 64  1  0  0  0  0
 65 67  1  0  0  0  0
 65 66  1  0  0  0  0
 68 65  1  0  0  0  0
 69 72  1  0  0  0  0
 69 61  1  0  0  0  0
 70 69  1  0  0  0  0
 71 69  1  0  0  0  0
 73 74  1  0  0  0  0
 73 75  1  0  0  0  0
 76 73  1  0  0  0  0
 77 78  1  0  0  0  0
 77 63  1  0  0  0  0
 79 77  1  0  0  0  0
 80 77  1  0  0  0  0
M  END
