17
 OpenBabel05122313113D

 48 54  0  0  1  0  0  0  0  0999 V2000
    1.8714   -0.3974   -0.2941 C   0  0  2  0  0  0  0  0  0  0  0  0
    0.8811   -1.7227   -0.0430 C   0  0  1  0  0  0  0  0  0  0  0  0
    1.1340    0.9233   -0.3291 C   0  0  0  0  0  0  0  0  0  0  0  0
    1.9777    2.1711   -0.4834 C   0  0  0  0  0  0  0  0  0  0  0  0
    1.4422    2.8942   -1.1335 H   0  0  0  0  0  0  0  0  0  0  0  0
    2.9249    1.9187   -0.9987 H   0  0  0  0  0  0  0  0  0  0  0  0
    2.2807    2.8610    0.8626 C   0  0  0  0  0  0  0  0  0  0  0  0
    1.3165    3.1575    1.3257 H   0  0  0  0  0  0  0  0  0  0  0  0
    2.7462    2.1273    1.5552 H   0  0  0  0  0  0  0  0  0  0  0  0
    3.1872    4.0925    0.7344 C   0  0  0  0  0  0  0  0  0  0  0  0
    2.7170    4.8179    0.0330 H   0  0  0  0  0  0  0  0  0  0  0  0
    3.2213    4.6069    1.7191 H   0  0  0  0  0  0  0  0  0  0  0  0
    4.6155    3.7834    0.2788 C   0  0  0  0  0  0  0  0  0  0  0  0
    5.2381    4.7002    0.2480 H   0  0  0  0  0  0  0  0  0  0  0  0
    4.6433    3.3357   -0.7357 H   0  0  0  0  0  0  0  0  0  0  0  0
    5.1088    3.0650    0.9665 H   0  0  0  0  0  0  0  0  0  0  0  0
   -0.2233    0.9375   -0.1763 C   0  0  0  0  0  3  0  0  0  0  0  0
   -0.9832    2.2082   -0.2790 C   0  0  0  0  0  0  0  0  0  0  0  0
   -1.4390    2.9120    0.8630 C   0  0  0  0  0  0  0  0  0  0  0  0
   -1.1797    2.5359    1.8632 H   0  0  0  0  0  0  0  0  0  0  0  0
   -2.1863    4.0932    0.7415 C   0  0  0  0  0  0  0  0  0  0  0  0
   -2.5167    4.6223    1.6487 H   0  0  0  0  0  0  0  0  0  0  0  0
   -2.5038    4.6059   -0.5260 C   0  0  0  0  0  0  0  0  0  0  0  0
   -3.0924    5.5305   -0.6211 H   0  0  0  0  0  0  0  0  0  0  0  0
   -2.0505    3.9312   -1.6716 C   0  0  0  0  0  0  0  0  0  0  0  0
   -2.2764    4.3307   -2.6724 H   0  0  0  0  0  0  0  0  0  0  0  0
   -1.3014    2.7526   -1.5496 C   0  0  0  0  0  0  0  0  0  0  0  0
   -0.9390    2.2381   -2.4527 H   0  0  0  0  0  0  0  0  0  0  0  0
    1.5824   -1.4650   -1.6006 B   0  0  2  0  0  0  0  0  0  0  0  0
    0.9133   -1.0714   -2.5155 H   0  0  0  0  0  0  0  0  0  0  0  0
    3.1957   -0.7861   -1.3269 B   0  0  2  0  0  0  0  0  0  0  0  0
    3.5909    0.0611   -2.0893 H   0  0  0  0  0  0  0  0  0  0  0  0
    3.4217   -0.6160    0.4204 B   0  0  0  0  0  0  0  0  0  0  0  0
    3.9794    0.3496    0.8770 H   0  0  0  0  0  0  0  0  0  0  0  0
    1.9431   -1.1883    1.2161 B   0  0  2  0  0  0  0  0  0  0  0  0
    1.5104   -0.6026    2.1715 H   0  0  0  0  0  0  0  0  0  0  0  0
    1.5194   -3.0769   -0.8831 B   0  0  1  0  0  0  0  0  0  0  0  0
    0.7432   -3.8911   -1.3267 H   0  0  0  0  0  0  0  0  0  0  0  0
    3.0034   -2.5180   -1.6992 B   0  0  0  0  0  0  0  0  0  0  0  0
    3.3388   -2.9667   -2.7710 H   0  0  0  0  0  0  0  0  0  0  0  0
    4.1522   -1.9946   -0.4348 B   0  0  1  0  0  0  0  0  0  0  0  0
    5.3509   -2.0631   -0.5813 H   0  0  0  0  0  0  0  0  0  0  0  0
    3.3694   -2.2384    1.1544 B   0  0  0  0  0  0  0  0  0  0  0  0
    3.9730   -2.4836    2.1732 H   0  0  0  0  0  0  0  0  0  0  0  0
    1.7418   -2.9059    0.8567 B   0  0  2  0  0  0  0  0  0  0  0  0
    1.1222   -3.6023    1.6267 H   0  0  0  0  0  0  0  0  0  0  0  0
    3.1143   -3.4203   -0.1610 B   0  0  1  0  0  0  0  0  0  0  0  0
    3.5407   -4.5509   -0.1053 H   0  0  0  0  0  0  0  0  0  0  0  0
  1  3  1  6  0  0  0
  1  2  1  0  0  0  0
  1 35  1  0  0  0  0
  2 45  1  0  0  0  0
  3 17  2  0  0  0  0
  4  3  1  0  0  0  0
  4  7  1  0  0  0  0
  5  4  1  0  0  0  0
  6  4  1  0  0  0  0
  7  8  1  0  0  0  0
  7  9  1  0  0  0  0
 10  7  1  0  0  0  0
 10 12  1  0  0  0  0
 11 10  1  0  0  0  0
 13 10  1  0  0  0  0
 13 16  1  0  0  0  0
 14 13  1  0  0  0  0
 15 13  1  0  0  0  0
 18 17  1  0  0  0  0
 18 19  1  0  0  0  0
 19 20  1  0  0  0  0
 21 19  2  0  0  0  0
 21 22  1  0  0  0  0
 23 21  1  0  0  0  0
 24 23  1  0  0  0  0
 25 27  1  0  0  0  0
 25 23  2  0  0  0  0
 26 25  1  0  0  0  0
 27 18  2  0  0  0  0
 28 27  1  0  0  0  0
 29 37  1  0  0  0  0
 29  1  1  0  0  0  0
 29  2  1  0  0  0  0
 30 29  1  0  0  0  0
 31 41  1  0  0  0  0
 31 33  1  0  0  0  0
 32 31  1  0  0  0  0
 33 34  1  0  0  0  0
 35 36  1  0  0  0  0
 37  2  1  0  0  0  0
 37 45  1  0  0  0  0
 38 37  1  0  0  0  0
 39 31  1  0  0  0  0
 39 47  1  0  0  0  0
 40 39  1  0  0  0  0
 41 47  1  0  0  0  0
 41 33  1  0  0  0  0
 42 41  1  0  0  0  0
 43 35  1  0  0  0  0
 43 44  1  0  0  0  0
 45 35  1  0  0  0  0
 45 46  1  0  0  0  0
 47 48  1  0  0  0  0
 47 43  1  0  0  0  0
M  END
