10
 OpenBabel05122313113D

 24 24  0  0  0  0  0  0  0  0999 V2000
   -0.1024    1.9292   -0.1791 P   0  0  0  0  0  0  0  0  0  0  0  0
    0.1070    3.1848    1.1373 C   0  0  0  0  0  0  0  0  0  0  0  0
   -0.7726    3.8585    1.1523 H   0  0  0  0  0  0  0  0  0  0  0  0
    1.0205    3.7876    0.9647 H   0  0  0  0  0  0  0  0  0  0  0  0
    0.1804    2.6703    2.1139 H   0  0  0  0  0  0  0  0  0  0  0  0
    0.1515    2.7564   -1.7946 C   0  0  0  0  0  0  0  0  0  0  0  0
   -0.6532    3.4979   -1.9680 H   0  0  0  0  0  0  0  0  0  0  0  0
    0.1262    1.9953   -2.5966 H   0  0  0  0  0  0  0  0  0  0  0  0
    1.1320    3.2724   -1.8110 H   0  0  0  0  0  0  0  0  0  0  0  0
    0.7762    0.3981   -0.0398 C   0  0  0  0  0  2  0  0  0  0  0  0
    2.1768    0.0907   -0.0696 C   0  0  0  0  0  0  0  0  0  0  0  0
    2.6454   -1.2365   -0.2996 C   0  0  0  0  0  0  0  0  0  0  0  0
    1.9185   -2.0412   -0.4757 H   0  0  0  0  0  0  0  0  0  0  0  0
    4.0077   -1.5164   -0.3379 C   0  0  0  0  0  0  0  0  0  0  0  0
    4.3444   -2.5465   -0.5312 H   0  0  0  0  0  0  0  0  0  0  0  0
    4.9743   -0.4996   -0.1363 C   0  0  0  0  0  0  0  0  0  0  0  0
    4.5160    0.8213    0.0814 C   0  0  0  0  0  0  0  0  0  0  0  0
    5.2499    1.6280    0.2294 H   0  0  0  0  0  0  0  0  0  0  0  0
    3.1543    1.1142    0.1025 C   0  0  0  0  0  0  0  0  0  0  0  0
    2.8223    2.1500    0.2704 H   0  0  0  0  0  0  0  0  0  0  0  0
    6.4386   -0.8249   -0.1421 C   0  0  0  0  0  0  0  0  0  0  0  0
    6.7240   -1.3227    0.8103 H   0  0  0  0  0  0  0  0  0  0  0  0
    7.0660    0.0800   -0.2458 H   0  0  0  0  0  0  0  0  0  0  0  0
    6.6939   -1.5327   -0.9558 H   0  0  0  0  0  0  0  0  0  0  0  0
  1 10  1  0  0  0  0
  1  2  1  0  0  0  0
  2  3  1  0  0  0  0
  2  5  1  0  0  0  0
  4  2  1  0  0  0  0
  6  1  1  0  0  0  0
  7  6  1  0  0  0  0
  8  6  1  0  0  0  0
  9  6  1  0  0  0  0
 11 10  1  0  0  0  0
 11 19  1  0  0  0  0
 12 11  2  0  0  0  0
 13 12  1  0  0  0  0
 14 12  1  0  0  0  0
 14 16  2  0  0  0  0
 15 14  1  0  0  0  0
 16 17  1  0  0  0  0
 17 19  2  0  0  0  0
 17 18  1  0  0  0  0
 19 20  1  0  0  0  0
 21 16  1  0  0  0  0
 21 22  1  0  0  0  0
 23 21  1  0  0  0  0
 24 21  1  0  0  0  0
M  END
