4
 OpenBabel05122313113D

 24 25  0  0  1  0  0  0  0  0999 V2000
    1.3807    0.9181   -0.1821 N   0  0  0  0  0  0  0  0  0  0  0  0
    0.4417    1.4340   -0.9872 C   0  0  1  0  0  3  0  0  0  0  0  0
   -0.5156    0.4493   -1.4383 C   0  0  0  0  0  3  0  0  0  0  0  0
   -0.0707   -0.7912   -0.8336 C   0  0  0  0  0  3  0  0  0  0  0  0
    1.2504   -0.5556   -0.0714 C   0  0  1  0  0  0  0  0  0  0  0  0
    3.5323   -1.2858   -0.0093 C   0  0  0  0  0  0  0  0  0  0  0  0
    4.6129   -1.3915   -1.0736 C   0  0  0  0  0  0  0  0  0  0  0  0
    3.5316   -2.4583    0.9674 C   0  0  0  0  0  0  0  0  0  0  0  0
    2.1980    1.9894    0.4039 C   0  0  0  0  0  0  0  0  0  0  0  0
    1.5841    3.1232   -0.2069 C   0  0  0  0  0  3  0  0  0  0  0  0
    0.5253    2.7470   -1.0296 O   0  0  0  0  0  0  0  0  0  0  0  0
    2.2612   -1.2431   -0.7260 O   0  0  0  0  0  0  0  0  0  0  0  0
    3.1386    1.8111    1.1791 O   0  0  0  0  0  0  0  0  0  0  0  0
   -1.0227    0.5444   -2.4075 H   0  0  0  0  0  0  0  0  0  0  0  0
   -0.1031   -1.7489   -1.3733 H   0  0  0  0  0  0  0  0  0  0  0  0
    1.2154   -0.8116    1.0131 H   0  0  0  0  0  0  0  0  0  0  0  0
    3.6523   -0.3280    0.5481 H   0  0  0  0  0  0  0  0  0  0  0  0
    4.4749   -2.3102   -1.6801 H   0  0  0  0  0  0  0  0  0  0  0  0
    4.5766   -0.5167   -1.7513 H   0  0  0  0  0  0  0  0  0  0  0  0
    5.6158   -1.4292   -0.6046 H   0  0  0  0  0  0  0  0  0  0  0  0
    2.7164   -2.3690    1.7142 H   0  0  0  0  0  0  0  0  0  0  0  0
    3.4044   -3.4180    0.4260 H   0  0  0  0  0  0  0  0  0  0  0  0
    4.4864   -2.4945    1.5293 H   0  0  0  0  0  0  0  0  0  0  0  0
    1.8287    4.1862   -0.1855 H   0  0  0  0  0  0  0  0  0  0  0  0
  1  5  1  0  0  0  0
  1  9  1  0  0  0  0
  2  3  1  1  0  0  0
  2  1  1  0  0  0  0
  3  4  1  0  0  0  0
  4  5  1  0  0  0  0
  5 16  1  1  0  0  0
  6 17  1  0  0  0  0
  6  8  1  0  0  0  0
  7 20  1  0  0  0  0
  7  6  1  0  0  0  0
  8 23  1  0  0  0  0
  8 21  1  0  0  0  0
  9 13  2  0  0  0  0
 10 24  1  0  0  0  0
 10  9  1  0  0  0  0
 11  2  1  0  0  0  0
 11 10  1  0  0  0  0
 12  5  1  0  0  0  0
 12  6  1  0  0  0  0
 14  3  1  0  0  0  0
 15  4  1  0  0  0  0
 18  7  1  0  0  0  0
 19  7  1  0  0  0  0
 22  8  1  0  0  0  0
M  END
