42
 OpenBabel05122313113D

 53 55  0  0  0  0  0  0  0  0999 V2000
   -1.9931    1.8638   -1.0405 O   0  0  0  0  0  0  0  0  0  0  0  0
   -3.3170    2.3527   -0.8549 C   0  0  0  0  0  0  0  0  0  0  0  0
   -3.4036    3.3842   -1.2702 H   0  0  0  0  0  0  0  0  0  0  0  0
   -3.5666    2.3849    0.2298 H   0  0  0  0  0  0  0  0  0  0  0  0
   -4.3001    1.4309   -1.5640 C   0  0  0  0  0  0  0  0  0  0  0  0
   -5.2710    1.9691   -1.6237 H   0  0  0  0  0  0  0  0  0  0  0  0
   -3.9530    1.2606   -2.6112 H   0  0  0  0  0  0  0  0  0  0  0  0
   -4.5438    0.2271   -0.8796 O   0  0  0  0  0  0  0  0  0  0  0  0
   -3.6835   -0.8729   -1.1545 C   0  0  0  0  0  0  0  0  0  0  0  0
   -2.7556   -0.5585   -1.6800 H   0  0  0  0  0  0  0  0  0  0  0  0
   -4.2053   -1.6136   -1.8053 H   0  0  0  0  0  0  0  0  0  0  0  0
   -3.3038   -1.5541    0.1407 C   0  0  0  0  0  0  0  0  0  0  0  0
   -4.2182   -1.6783    0.7656 H   0  0  0  0  0  0  0  0  0  0  0  0
   -2.8690   -2.5530   -0.0806 H   0  0  0  0  0  0  0  0  0  0  0  0
   -2.3621   -0.7303    0.8352 O   0  0  0  0  0  0  0  0  0  0  0  0
   -2.2364   -1.0414    2.2169 C   0  0  0  0  0  0  0  0  0  0  0  0
   -1.7639   -2.0418    2.3535 H   0  0  0  0  0  0  0  0  0  0  0  0
   -3.2436   -1.0494    2.6961 H   0  0  0  0  0  0  0  0  0  0  0  0
   -1.3863    0.0228    2.8773 C   0  0  0  0  0  0  0  0  0  0  0  0
   -1.7904    1.0325    2.6192 H   0  0  0  0  0  0  0  0  0  0  0  0
   -1.4419   -0.0945    3.9877 H   0  0  0  0  0  0  0  0  0  0  0  0
   -0.0551   -0.1139    2.4246 O   0  0  0  0  0  0  0  0  0  0  0  0
    0.8041    0.9413    2.7925 C   0  0  0  0  0  0  0  0  0  0  0  0
    0.8438    1.0680    3.9026 H   0  0  0  0  0  0  0  0  0  0  0  0
    0.4631    1.9081    2.3481 H   0  0  0  0  0  0  0  0  0  0  0  0
    2.1958    0.6064    2.2920 C   0  0  0  0  0  0  0  0  0  0  0  0
    2.8997    1.4255    2.5632 H   0  0  0  0  0  0  0  0  0  0  0  0
    2.5546   -0.3458    2.7423 H   0  0  0  0  0  0  0  0  0  0  0  0
    2.0948    0.4692    0.8836 O   0  0  0  0  0  0  0  0  0  0  0  0
    3.1593    0.1195    0.1235 C   0  0  0  0  0  0  0  0  0  0  0  0
    4.4687   -0.0110    0.6172 C   0  0  0  0  0  0  0  0  0  0  0  0
    4.6833    0.1888    1.6756 H   0  0  0  0  0  0  0  0  0  0  0  0
    5.5021   -0.4113   -0.2436 C   0  0  0  0  0  0  0  0  0  0  0  0
    6.5249   -0.5091    0.1502 H   0  0  0  0  0  0  0  0  0  0  0  0
    5.2307   -0.7024   -1.5890 C   0  0  0  0  0  0  0  0  0  0  0  0
    6.0364   -1.0320   -2.2608 H   0  0  0  0  0  0  0  0  0  0  0  0
    3.9211   -0.5833   -2.0701 C   0  0  0  0  0  0  0  0  0  0  0  0
    3.6987   -0.8271   -3.1205 H   0  0  0  0  0  0  0  0  0  0  0  0
    2.8597   -0.1456   -1.2464 C   0  0  0  0  0  0  0  0  0  0  0  0
    1.5015   -0.0799   -1.8164 C   0  0  0  0  0  3  0  0  0  0  0  0
    1.3676   -0.7698   -2.6679 H   0  0  0  0  0  0  0  0  0  0  0  0
    0.4349    0.8160   -1.6388 C   0  0  0  0  0  3  0  0  0  0  0  0
   -0.4073    0.6669   -2.3358 H   0  0  0  0  0  0  0  0  0  0  0  0
    0.3533    2.0775   -0.8874 C   0  0  0  0  0  0  0  0  0  0  0  0
    1.4760    2.8340   -0.4937 C   0  0  0  0  0  0  0  0  0  0  0  0
    2.4757    2.4822   -0.7838 H   0  0  0  0  0  0  0  0  0  0  0  0
    1.3419    4.0263    0.2303 C   0  0  0  0  0  0  0  0  0  0  0  0
    2.2361    4.5985    0.5181 H   0  0  0  0  0  0  0  0  0  0  0  0
    0.0627    4.4841    0.5790 C   0  0  0  0  0  0  0  0  0  0  0  0
   -0.0566    5.4109    1.1606 H   0  0  0  0  0  0  0  0  0  0  0  0
   -1.0809    3.7767    0.1727 C   0  0  0  0  0  0  0  0  0  0  0  0
   -2.0763    4.1551    0.4390 H   0  0  0  0  0  0  0  0  0  0  0  0
   -0.9431    2.5922   -0.5759 C   0  0  0  0  0  0  0  0  0  0  0  0
  1  2  1  0  0  0  0
  1 53  1  0  0  0  0
  2  4  1  0  0  0  0
  3  2  1  0  0  0  0
  5  8  1  0  0  0  0
  5  2  1  0  0  0  0
  6  5  1  0  0  0  0
  7  5  1  0  0  0  0
  9  8  1  0  0  0  0
  9 12  1  0  0  0  0
 10  9  1  0  0  0  0
 11  9  1  0  0  0  0
 12 13  1  0  0  0  0
 12 15  1  0  0  0  0
 14 12  1  0  0  0  0
 15 16  1  0  0  0  0
 16 17  1  0  0  0  0
 16 18  1  0  0  0  0
 16 19  1  0  0  0  0
 19 21  1  0  0  0  0
 20 19  1  0  0  0  0
 22 23  1  0  0  0  0
 22 19  1  0  0  0  0
 23 24  1  0  0  0  0
 25 23  1  0  0  0  0
 26 27  1  0  0  0  0
 26 28  1  0  0  0  0
 26 23  1  0  0  0  0
 29 26  1  0  0  0  0
 30 31  1  0  0  0  0
 30 29  1  0  0  0  0
 31 32  1  0  0  0  0
 33 34  1  0  0  0  0
 33 31  2  0  0  0  0
 35 33  1  0  0  0  0
 36 35  1  0  0  0  0
 37 35  2  0  0  0  0
 37 39  1  0  0  0  0
 38 37  1  0  0  0  0
 39 30  2  0  0  0  0
 40 42  1  0  0  0  0
 40 39  1  0  0  0  0
 41 40  1  0  0  0  0
 42 44  1  0  0  0  0
 43 42  1  0  0  0  0
 44 53  2  0  0  0  0
 44 45  1  0  0  0  0
 45 47  2  0  0  0  0
 46 45  1  0  0  0  0
 47 48  1  0  0  0  0
 47 49  1  0  0  0  0
 49 50  1  0  0  0  0
 51 52  1  0  0  0  0
 51 49  2  0  0  0  0
 53 51  1  0  0  0  0
M  END
