10
 OpenBabel05122313113D

 13 13  0  0  0  0  0  0  0  0999 V2000
   -4.7545   -0.4823   -0.8530 O   0  0  0  0  0  0  0  0  0  0  0  0
   -4.8980   -1.1687   -0.1721 H   0  0  0  0  0  0  0  0  0  0  0  0
   -3.8668    0.4270   -0.4313 C   0  0  0  0  0  0  0  0  0  0  0  0
   -3.2620    0.3928    0.8655 C   0  0  0  0  0  0  0  0  0  0  0  0
   -3.5292   -0.3982    1.5817 H   0  0  0  0  0  0  0  0  0  0  0  0
   -2.3334    1.4065    1.2236 C   0  0  0  0  0  0  0  0  0  0  0  0
   -1.8700    1.3755    2.2197 H   0  0  0  0  0  0  0  0  0  0  0  0
   -2.0114    2.4677    0.3273 C   0  0  0  0  0  0  0  0  0  0  0  0
   -1.3016    3.2508    0.6237 H   0  0  0  0  0  0  0  0  0  0  0  0
   -2.6006    2.4777   -0.9749 C   0  0  0  0  0  3  0  0  0  0  0  0
   -2.3434    3.2719   -1.6896 H   0  0  0  0  0  0  0  0  0  0  0  0
   -3.5162    1.4640   -1.3601 C   0  0  0  0  0  3  0  0  0  0  0  0
   -3.9733    1.4545   -2.3587 H   0  0  0  0  0  0  0  0  0  0  0  0
  1  3  1  0  0  0  0
  1  2  1  0  0  0  0
  3  4  2  0  0  0  0
  4  6  1  0  0  0  0
  4  5  1  0  0  0  0
  6  7  1  0  0  0  0
  8  9  1  0  0  0  0
  8  6  2  0  0  0  0
 10  8  1  0  0  0  0
 11 10  1  0  0  0  0
 12 10  1  0  0  0  0
 12  3  1  0  0  0  0
 13 12  1  0  0  0  0
M  END
