3
 OpenBabel05122313113D

 45 45  0  0  0  0  0  0  0  0999 V2000
    0.4097    2.7419    0.4803 N   0  0  0  0  0  0  0  0  0  0  0  0
    0.9687   -2.4308    0.4385 N   0  0  0  0  0  0  0  0  0  0  0  0
   -0.5217    0.0373   -0.3796 C   0  0  0  0  0  3  0  0  0  0  0  0
   -1.0948   -1.2476   -0.3160 C   0  0  0  0  0  0  0  0  0  0  0  0
   -2.4936   -1.3786   -0.2046 C   0  0  0  0  0  0  0  0  0  0  0  0
   -2.9120   -2.3941   -0.1468 H   0  0  0  0  0  0  0  0  0  0  0  0
   -3.3444   -0.2593   -0.1550 C   0  0  0  0  0  0  0  0  0  0  0  0
   -2.7407    1.0149   -0.2095 C   0  0  0  0  0  0  0  0  0  0  0  0
   -3.3665    1.9205   -0.1535 H   0  0  0  0  0  0  0  0  0  0  0  0
   -1.3500    1.1780   -0.3199 C   0  0  0  0  0  0  0  0  0  0  0  0
   -0.7497    2.5733   -0.3926 C   0  0  0  0  0  0  0  0  0  0  0  0
   -0.4073    2.7629   -1.4341 H   0  0  0  0  0  0  0  0  0  0  0  0
   -1.5466    3.3336   -0.1802 H   0  0  0  0  0  0  0  0  0  0  0  0
    0.0588    2.6723    1.8908 C   0  0  0  0  0  0  0  0  0  0  0  0
   -0.4754    1.7240    2.1000 H   0  0  0  0  0  0  0  0  0  0  0  0
   -0.6029    3.5185    2.2127 H   0  0  0  0  0  0  0  0  0  0  0  0
    0.9777    2.6988    2.5098 H   0  0  0  0  0  0  0  0  0  0  0  0
    1.1947    3.9228    0.1604 C   0  0  0  0  0  0  0  0  0  0  0  0
    2.1125    3.9418    0.7813 H   0  0  0  0  0  0  0  0  0  0  0  0
    0.6377    4.8804    0.3343 H   0  0  0  0  0  0  0  0  0  0  0  0
    1.5042    3.8941   -0.9038 H   0  0  0  0  0  0  0  0  0  0  0  0
   -0.2272   -2.4961   -0.3991 C   0  0  0  0  0  0  0  0  0  0  0  0
   -0.8516   -3.3977   -0.1642 H   0  0  0  0  0  0  0  0  0  0  0  0
    0.1157   -2.6214   -1.4500 H   0  0  0  0  0  0  0  0  0  0  0  0
    0.6545   -2.4459    1.8595 C   0  0  0  0  0  0  0  0  0  0  0  0
   -0.0550   -1.6282    2.0979 H   0  0  0  0  0  0  0  0  0  0  0  0
    1.5788   -2.2910    2.4509 H   0  0  0  0  0  0  0  0  0  0  0  0
    0.1894   -3.4121    2.1868 H   0  0  0  0  0  0  0  0  0  0  0  0
    1.9700   -3.4257    0.0795 C   0  0  0  0  0  0  0  0  0  0  0  0
    2.2253   -3.3314   -0.9951 H   0  0  0  0  0  0  0  0  0  0  0  0
    1.6255   -4.4766    0.2625 H   0  0  0  0  0  0  0  0  0  0  0  0
    2.8984   -3.2549    0.6599 H   0  0  0  0  0  0  0  0  0  0  0  0
   -4.8730   -0.3774   -0.0212 C   0  0  0  0  0  0  0  0  0  0  0  0
   -5.5423    0.3117   -1.2321 C   0  0  0  0  0  0  0  0  0  0  0  0
   -5.2342   -0.1702   -2.1819 H   0  0  0  0  0  0  0  0  0  0  0  0
   -5.2734    1.3847   -1.2957 H   0  0  0  0  0  0  0  0  0  0  0  0
   -6.6472    0.2450   -1.1536 H   0  0  0  0  0  0  0  0  0  0  0  0
   -5.3412   -1.8421    0.0233 C   0  0  0  0  0  0  0  0  0  0  0  0
   -4.9168   -2.3852    0.8916 H   0  0  0  0  0  0  0  0  0  0  0  0
   -5.0627   -2.3922   -0.8981 H   0  0  0  0  0  0  0  0  0  0  0  0
   -6.4453   -1.8805    0.1140 H   0  0  0  0  0  0  0  0  0  0  0  0
   -5.3242    0.3183    1.2834 C   0  0  0  0  0  0  0  0  0  0  0  0
   -4.8556   -0.1580    2.1683 H   0  0  0  0  0  0  0  0  0  0  0  0
   -6.4259    0.2502    1.3979 H   0  0  0  0  0  0  0  0  0  0  0  0
   -5.0507    1.3920    1.2936 H   0  0  0  0  0  0  0  0  0  0  0  0
  1 14  1  0  0  0  0
  2 25  1  0  0  0  0
  3 10  2  0  0  0  0
  3  4  1  0  0  0  0
  4  5  2  0  0  0  0
  5  7  1  0  0  0  0
  5  6  1  0  0  0  0
  7 33  1  0  0  0  0
  8  7  2  0  0  0  0
  8  9  1  0  0  0  0
 10  8  1  0  0  0  0
 11 10  1  0  0  0  0
 11 13  1  0  0  0  0
 11  1  1  0  0  0  0
 12 11  1  0  0  0  0
 14 15  1  0  0  0  0
 14 16  1  0  0  0  0
 14 17  1  0  0  0  0
 18 20  1  0  0  0  0
 18  1  1  0  0  0  0
 18 19  1  0  0  0  0
 21 18  1  0  0  0  0
 22  4  1  0  0  0  0
 22 23  1  0  0  0  0
 22  2  1  0  0  0  0
 24 22  1  0  0  0  0
 25 26  1  0  0  0  0
 25 28  1  0  0  0  0
 25 27  1  0  0  0  0
 29 31  1  0  0  0  0
 29  2  1  0  0  0  0
 29 32  1  0  0  0  0
 30 29  1  0  0  0  0
 33 38  1  0  0  0  0
 33 42  1  0  0  0  0
 34 37  1  0  0  0  0
 34 33  1  0  0  0  0
 35 34  1  0  0  0  0
 36 34  1  0  0  0  0
 38 41  1  0  0  0  0
 38 39  1  0  0  0  0
 40 38  1  0  0  0  0
 42 45  1  0  0  0  0
 42 44  1  0  0  0  0
 42 43  1  0  0  0  0
M  END
