2
 OpenBabel05122313113D

 19 19  0  0  0  0  0  0  0  0999 V2000
    1.7242   -1.2416    1.5096 S   0  0  2  0  0  3  0  0  0  0  0  0
    0.3157   -0.1658    1.2386 C   0  0  0  0  0  3  0  0  0  0  0  0
    2.1307   -1.1398    3.2868 C   0  0  0  0  0  0  0  0  0  0  0  0
    3.1182   -0.3861    0.7701 C   0  0  0  0  0  0  0  0  0  0  0  0
    3.4773    0.9106    1.1747 C   0  0  0  0  0  0  0  0  0  0  0  0
    4.5590    1.5373    0.5437 C   0  0  0  0  0  0  0  0  0  0  0  0
    5.2630    0.8747   -0.4762 C   0  0  0  0  0  0  0  0  0  0  0  0
    4.8927   -0.4203   -0.8679 C   0  0  0  0  0  0  0  0  0  0  0  0
    3.8138   -1.0650   -0.2436 C   0  0  0  0  0  0  0  0  0  0  0  0
    0.5542    0.8257    1.6770 H   0  0  0  0  0  0  0  0  0  0  0  0
   -0.4862   -0.6439    1.8413 H   0  0  0  0  0  0  0  0  0  0  0  0
    1.2974   -1.6219    3.8318 H   0  0  0  0  0  0  0  0  0  0  0  0
    2.2415   -0.0849    3.5995 H   0  0  0  0  0  0  0  0  0  0  0  0
    3.0690   -1.7022    3.4525 H   0  0  0  0  0  0  0  0  0  0  0  0
    2.9196    1.4402    1.9615 H   0  0  0  0  0  0  0  0  0  0  0  0
    4.8501    2.5539    0.8461 H   0  0  0  0  0  0  0  0  0  0  0  0
    6.1080    1.3759   -0.9707 H   0  0  0  0  0  0  0  0  0  0  0  0
    5.4434   -0.9371   -1.6673 H   0  0  0  0  0  0  0  0  0  0  0  0
    3.5067   -2.0745   -0.5519 H   0  0  0  0  0  0  0  0  0  0  0  0
  1  2  1  1  0  0  0
  1  3  1  0  0  0  0
  2 10  1  0  0  0  0
  2 11  1  0  0  0  0
  3 14  1  0  0  0  0
  3 13  1  0  0  0  0
  3 12  1  0  0  0  0
  4  5  1  0  0  0  0
  4  1  1  0  0  0  0
  5 15  1  0  0  0  0
  6 16  1  0  0  0  0
  6  5  2  0  0  0  0
  7  6  1  0  0  0  0
  8  7  2  0  0  0  0
  8  9  1  0  0  0  0
  9  4  2  0  0  0  0
 17  7  1  0  0  0  0
 18  8  1  0  0  0  0
 19  9  1  0  0  0  0
M  END
