4
 OpenBabel05122313113D

 36 38  0  0  1  0  0  0  0  0999 V2000
   -0.1127    1.8195   -0.3769 N   0  0  0  0  0  0  0  0  0  0  0  0
   -0.4145    2.0567    0.8848 N   0  0  0  0  0  2  0  0  0  0  0  0
   -1.5846    1.4656    1.0703 N   0  0  0  0  0  0  0  0  0  0  0  0
    2.2793    1.2529   -0.3670 C   0  0  1  0  0  3  0  0  0  0  0  0
    3.2553    0.5537   -1.1687 C   0  0  0  0  0  0  0  0  0  0  0  0
    3.3091    0.5590   -2.2646 H   0  0  0  0  0  0  0  0  0  0  0  0
    4.1316   -0.1481   -0.2917 C   0  0  0  0  0  0  0  0  0  0  0  0
    4.9723   -0.7817   -0.5984 H   0  0  0  0  0  0  0  0  0  0  0  0
    3.7192    0.1140    1.0609 C   0  0  0  0  0  0  0  0  0  0  0  0
    4.1895   -0.2807    1.9689 H   0  0  0  0  0  0  0  0  0  0  0  0
    2.5829    0.9780    1.0124 C   0  0  0  0  0  0  0  0  0  0  0  0
    2.0331    1.3659    1.8783 H   0  0  0  0  0  0  0  0  0  0  0  0
    1.2279    2.2024   -0.8983 C   0  0  2  0  0  0  0  0  0  0  0  0
    1.1427    2.0529   -1.9922 H   0  0  0  0  0  0  0  0  0  0  0  0
   -1.0644    1.0829   -1.0140 C   0  0  0  0  0  0  0  0  0  0  0  0
   -0.9664    0.7375   -2.0474 H   0  0  0  0  0  0  0  0  0  0  0  0
   -2.0496    0.8272   -0.0623 C   0  0  0  0  0  0  0  0  0  0  0  0
   -3.2937    0.0593   -0.1636 C   0  0  0  0  0  0  0  0  0  0  0  0
   -4.1597    0.2863   -1.2573 C   0  0  0  0  0  0  0  0  0  0  0  0
   -3.9175    1.0644   -1.9969 H   0  0  0  0  0  0  0  0  0  0  0  0
   -5.3361   -0.4623   -1.3823 C   0  0  0  0  0  0  0  0  0  0  0  0
   -6.0128   -0.2775   -2.2293 H   0  0  0  0  0  0  0  0  0  0  0  0
   -5.6523   -1.4421   -0.4268 C   0  0  0  0  0  0  0  0  0  0  0  0
   -6.5771   -2.0290   -0.5285 H   0  0  0  0  0  0  0  0  0  0  0  0
   -4.7867   -1.6809    0.6532 C   0  0  0  0  0  0  0  0  0  0  0  0
   -5.0245   -2.4629    1.3891 H   0  0  0  0  0  0  0  0  0  0  0  0
   -3.6079   -0.9372    0.7897 C   0  0  0  0  0  0  0  0  0  0  0  0
   -2.9055   -1.1619    1.6051 H   0  0  0  0  0  0  0  0  0  0  0  0
    1.5279    3.6704   -0.5919 C   0  0  0  0  0  0  0  0  0  0  0  0
    0.7574    4.3362   -1.0265 H   0  0  0  0  0  0  0  0  0  0  0  0
    2.5077    3.9333   -1.0330 H   0  0  0  0  0  0  0  0  0  0  0  0
    1.5830    3.8438    0.4994 H   0  0  0  0  0  0  0  0  0  0  0  0
   -2.1976    1.5190    2.3937 C   0  0  0  0  0  0  0  0  0  0  0  0
   -1.9124    2.4750    2.8660 H   0  0  0  0  0  0  0  0  0  0  0  0
   -1.8290    0.6707    3.0013 H   0  0  0  0  0  0  0  0  0  0  0  0
   -3.2937    1.4528    2.2791 H   0  0  0  0  0  0  0  0  0  0  0  0
  1  2  1  0  0  0  0
  2  3  1  0  0  0  0
  3 33  1  0  0  0  0
  4 13  1  1  0  0  0
  4 11  1  0  0  0  0
  5  4  1  0  0  0  0
  5  7  2  0  0  0  0
  6  5  1  0  0  0  0
  7  9  1  0  0  0  0
  8  7  1  0  0  0  0
  9 10  1  0  0  0  0
 11  9  2  0  0  0  0
 11 12  1  0  0  0  0
 13 14  1  6  0  0  0
 13 29  1  0  0  0  0
 13  1  1  0  0  0  0
 15  1  1  0  0  0  0
 15 17  2  0  0  0  0
 16 15  1  0  0  0  0
 17  3  1  0  0  0  0
 18 17  1  0  0  0  0
 18 27  1  0  0  0  0
 19 18  2  0  0  0  0
 20 19  1  0  0  0  0
 21 19  1  0  0  0  0
 21 23  2  0  0  0  0
 22 21  1  0  0  0  0
 23 25  1  0  0  0  0
 24 23  1  0  0  0  0
 25 27  2  0  0  0  0
 25 26  1  0  0  0  0
 27 28  1  0  0  0  0
 29 32  1  0  0  0  0
 30 29  1  0  0  0  0
 31 29  1  0  0  0  0
 33 34  1  0  0  0  0
 33 35  1  0  0  0  0
 36 33  1  0  0  0  0
M  END
