13
 OpenBabel05122313113D

 73 75  0  0  1  0  0  0  0  0999 V2000
   -1.0040   -2.0655    1.6497 Si  0  0  0  0  0  0  0  0  0  0  0  0
   -0.8811    1.4006    2.2304 Si  0  0  0  0  0  0  0  0  0  0  0  0
    2.3737   -0.1701    0.2281 C   0  0  0  0  0  0  0  0  0  0  0  0
    1.6423   -1.3506    0.5648 C   0  0  0  0  0  0  0  0  0  0  0  0
    1.8671   -2.3469    0.1635 H   0  0  0  0  0  0  0  0  0  0  0  0
    0.5741   -1.0323    1.4613 C   0  0  0  0  0  0  0  0  0  0  0  0
    0.6334    0.4064    1.6866 C   0  0  0  0  0  0  0  0  0  0  0  0
    1.7385    0.9051    0.9234 C   0  0  0  0  0  3  0  0  0  0  0  0
    2.0317    1.9599    0.8534 H   0  0  0  0  0  0  0  0  0  0  0  0
   -2.7547    0.2667   -1.2728 C   0  0  0  0  0  0  0  0  0  0  0  0
   -3.1112    0.4554   -2.2908 H   0  0  0  0  0  0  0  0  0  0  0  0
   -2.5363   -1.0201   -0.7065 C   0  0  1  0  0  3  0  0  0  0  0  0
   -2.0258   -0.8329    0.6263 C   0  0  2  0  0  3  0  0  0  0  0  0
   -1.9866    0.6184    0.8844 C   0  0  2  0  0  3  0  0  0  0  0  0
   -2.4815    1.2710   -0.3016 C   0  0  0  0  0  0  0  0  0  0  0  0
    3.6646   -0.1366   -0.5587 C   0  0  1  0  0  0  0  0  0  0  0  0
    3.6893   -1.0770   -1.1527 H   0  0  0  0  0  0  0  0  0  0  0  0
    3.7442    1.0490   -1.5539 C   0  0  0  0  0  0  0  0  0  0  0  0
    3.1211    1.8912   -1.1900 H   0  0  0  0  0  0  0  0  0  0  0  0
    4.7810    1.4401   -1.5906 H   0  0  0  0  0  0  0  0  0  0  0  0
    3.3087    0.6756   -2.9711 C   0  0  0  0  0  0  0  0  0  0  0  0
    3.9879   -0.0878   -3.4055 H   0  0  0  0  0  0  0  0  0  0  0  0
    3.3152    1.5588   -3.6407 H   0  0  0  0  0  0  0  0  0  0  0  0
    2.2844    0.2539   -2.9871 H   0  0  0  0  0  0  0  0  0  0  0  0
    4.9145   -0.2364    0.4065 C   0  0  0  0  0  0  0  0  0  0  0  0
    6.1711   -0.5121   -0.4425 C   0  0  0  0  0  0  0  0  0  0  0  0
    6.3811    0.3025   -1.1635 H   0  0  0  0  0  0  0  0  0  0  0  0
    6.0630   -1.4543   -1.0187 H   0  0  0  0  0  0  0  0  0  0  0  0
    7.0628   -0.6147    0.2093 H   0  0  0  0  0  0  0  0  0  0  0  0
    4.7408   -1.4106    1.3879 C   0  0  0  0  0  0  0  0  0  0  0  0
    5.6617   -1.5436    1.9919 H   0  0  0  0  0  0  0  0  0  0  0  0
    4.5530   -2.3628    0.8491 H   0  0  0  0  0  0  0  0  0  0  0  0
    3.8989   -1.2457    2.0888 H   0  0  0  0  0  0  0  0  0  0  0  0
    5.1062    1.0604    1.2121 C   0  0  0  0  0  0  0  0  0  0  0  0
    4.2362    1.2603    1.8695 H   0  0  0  0  0  0  0  0  0  0  0  0
    5.2500    1.9403    0.5535 H   0  0  0  0  0  0  0  0  0  0  0  0
    6.0018    0.9807    1.8622 H   0  0  0  0  0  0  0  0  0  0  0  0
   -2.9083   -2.3370   -1.3558 C   0  0  0  0  0  0  0  0  0  0  0  0
   -2.0287   -3.0091   -1.2957 H   0  0  0  0  0  0  0  0  0  0  0  0
   -3.2670   -2.1896   -2.8379 C   0  0  0  0  0  0  0  0  0  0  0  0
   -4.1748   -1.5660   -2.9753 H   0  0  0  0  0  0  0  0  0  0  0  0
   -3.4765   -3.1825   -3.2834 H   0  0  0  0  0  0  0  0  0  0  0  0
   -2.4334   -1.7318   -3.4050 H   0  0  0  0  0  0  0  0  0  0  0  0
   -4.0595   -2.9884   -0.5660 C   0  0  0  0  0  0  0  0  0  0  0  0
   -4.9726   -2.3590   -0.6089 H   0  0  0  0  0  0  0  0  0  0  0  0
   -3.7992   -3.1215    0.5033 H   0  0  0  0  0  0  0  0  0  0  0  0
   -4.3097   -3.9836   -0.9872 H   0  0  0  0  0  0  0  0  0  0  0  0
   -2.7924    2.7441   -0.4653 C   0  0  0  0  0  0  0  0  0  0  0  0
   -1.8800    3.3177   -0.2073 H   0  0  0  0  0  0  0  0  0  0  0  0
   -3.9040    3.1447    0.5232 C   0  0  0  0  0  0  0  0  0  0  0  0
   -4.8476    2.6073    0.2944 H   0  0  0  0  0  0  0  0  0  0  0  0
   -4.1073    4.2335    0.4636 H   0  0  0  0  0  0  0  0  0  0  0  0
   -3.6299    2.9018    1.5694 H   0  0  0  0  0  0  0  0  0  0  0  0
   -3.1697    3.1176   -1.9024 C   0  0  0  0  0  0  0  0  0  0  0  0
   -2.3641    2.8412   -2.6100 H   0  0  0  0  0  0  0  0  0  0  0  0
   -3.3336    4.2106   -1.9845 H   0  0  0  0  0  0  0  0  0  0  0  0
   -4.1080    2.6165   -2.2193 H   0  0  0  0  0  0  0  0  0  0  0  0
   -0.6852   -3.7328    0.8254 C   0  0  0  0  0  0  0  0  0  0  0  0
   -0.2653   -3.6221   -0.1931 H   0  0  0  0  0  0  0  0  0  0  0  0
   -1.6053   -4.3469    0.7658 H   0  0  0  0  0  0  0  0  0  0  0  0
    0.0493   -4.2898    1.4443 H   0  0  0  0  0  0  0  0  0  0  0  0
   -1.6714   -2.3901    3.3876 C   0  0  0  0  0  0  0  0  0  0  0  0
   -0.8479   -2.5981    4.1006 H   0  0  0  0  0  0  0  0  0  0  0  0
   -2.3253   -3.2859    3.3530 H   0  0  0  0  0  0  0  0  0  0  0  0
   -2.2754   -1.5510    3.7774 H   0  0  0  0  0  0  0  0  0  0  0  0
   -0.5053    3.2326    1.9798 C   0  0  0  0  0  0  0  0  0  0  0  0
   -1.3908    3.8725    2.1628 H   0  0  0  0  0  0  0  0  0  0  0  0
   -0.1170    3.4423    0.9643 H   0  0  0  0  0  0  0  0  0  0  0  0
    0.2748    3.5225    2.7146 H   0  0  0  0  0  0  0  0  0  0  0  0
   -1.4298    1.1591    4.0197 C   0  0  0  0  0  0  0  0  0  0  0  0
   -0.7948    1.7884    4.6765 H   0  0  0  0  0  0  0  0  0  0  0  0
   -1.3446    0.1142    4.3665 H   0  0  0  0  0  0  0  0  0  0  0  0
   -2.4825    1.4852    4.1471 H   0  0  0  0  0  0  0  0  0  0  0  0
  1 62  1  0  0  0  0
  2 70  1  0  0  0  0
  3  4  2  0  0  0  0
  3  8  1  0  0  0  0
  4  6  1  0  0  0  0
  5  4  1  0  0  0  0
  6  1  1  0  0  0  0
  6  7  2  0  0  0  0
  7  2  1  0  0  0  0
  8  7  1  0  0  0  0
  9  8  1  0  0  0  0
 10 12  1  0  0  0  0
 10 15  2  0  0  0  0
 11 10  1  0  0  0  0
 12 38  1  1  0  0  0
 12 13  1  0  0  0  0
 13 14  1  0  0  0  0
 13  1  1  6  0  0  0
 14 15  1  6  0  0  0
 14  2  1  0  0  0  0
 16 17  1  6  0  0  0
 16  3  1  0  0  0  0
 16 25  1  0  0  0  0
 18 19  1  0  0  0  0
 18 16  1  0  0  0  0
 20 18  1  0  0  0  0
 21 18  1  0  0  0  0
 22 21  1  0  0  0  0
 23 21  1  0  0  0  0
 24 21  1  0  0  0  0
 25 34  1  0  0  0  0
 25 30  1  0  0  0  0
 26 29  1  0  0  0  0
 26 25  1  0  0  0  0
 27 26  1  0  0  0  0
 28 26  1  0  0  0  0
 30 31  1  0  0  0  0
 30 33  1  0  0  0  0
 32 30  1  0  0  0  0
 34 37  1  0  0  0  0
 34 35  1  0  0  0  0
 36 34  1  0  0  0  0
 38 39  1  0  0  0  0
 38 44  1  0  0  0  0
 40 38  1  0  0  0  0
 41 40  1  0  0  0  0
 42 40  1  0  0  0  0
 43 40  1  0  0  0  0
 44 46  1  0  0  0  0
 45 44  1  0  0  0  0
 47 44  1  0  0  0  0
 48 15  1  0  0  0  0
 48 49  1  0  0  0  0
 48 50  1  0  0  0  0
 50 53  1  0  0  0  0
 51 50  1  0  0  0  0
 52 50  1  0  0  0  0
 54 48  1  0  0  0  0
 55 54  1  0  0  0  0
 56 54  1  0  0  0  0
 57 54  1  0  0  0  0
 58 61  1  0  0  0  0
 58  1  1  0  0  0  0
 59 58  1  0  0  0  0
 60 58  1  0  0  0  0
 62 65  1  0  0  0  0
 62 63  1  0  0  0  0
 64 62  1  0  0  0  0
 66 67  1  0  0  0  0
 66  2  1  0  0  0  0
 66 69  1  0  0  0  0
 68 66  1  0  0  0  0
 70 73  1  0  0  0  0
 70 72  1  0  0  0  0
 70 71  1  0  0  0  0
M  END
