3
 OpenBabel05122313113D

 31 32  0  0  1  0  0  0  0  0999 V2000
   -1.0927    2.9190   -0.3998 O   0  0  0  0  0  0  0  0  0  0  0  0
   -1.0452    0.6540   -0.4614 N   0  0  0  0  0  0  0  0  0  0  0  0
    1.8661    0.7146    0.0653 C   0  0  0  0  0  3  0  0  0  0  0  0
    3.2446    0.8661    0.2900 C   0  0  0  0  0  0  0  0  0  0  0  0
    3.8875   -0.0194    0.4064 H   0  0  0  0  0  0  0  0  0  0  0  0
    3.8235    2.1459    0.3713 C   0  0  0  0  0  0  0  0  0  0  0  0
    4.9058    2.2447    0.5474 H   0  0  0  0  0  0  0  0  0  0  0  0
    3.0246    3.2898    0.2304 C   0  0  0  0  0  0  0  0  0  0  0  0
    3.4743    4.2919    0.2948 H   0  0  0  0  0  0  0  0  0  0  0  0
    1.6483    3.1554    0.0072 C   0  0  0  0  0  0  0  0  0  0  0  0
    1.0072    4.0411   -0.1050 H   0  0  0  0  0  0  0  0  0  0  0  0
    1.0614    1.8745   -0.0791 C   0  0  0  0  0  0  0  0  0  0  0  0
   -0.3907    1.7573   -0.3179 C   0  0  0  0  0  0  0  0  0  0  0  0
   -2.4550    0.9883   -0.6831 C   0  0  2  0  0  0  0  0  0  0  0  0
   -2.7256    0.6721   -1.7165 H   0  0  0  0  0  0  0  0  0  0  0  0
   -2.4806    2.5427   -0.5715 C   0  0  0  0  0  0  0  0  0  0  0  0
   -2.8688    3.0483   -1.4769 H   0  0  0  0  0  0  0  0  0  0  0  0
   -3.0442    2.9120    0.3103 H   0  0  0  0  0  0  0  0  0  0  0  0
   -3.4188    0.2271    0.2762 C   0  0  0  0  0  0  0  0  0  0  0  0
   -3.3443   -1.2769   -0.0411 C   0  0  0  0  0  0  0  0  0  0  0  0
   -3.6280   -1.4747   -1.0957 H   0  0  0  0  0  0  0  0  0  0  0  0
   -4.0462   -1.8413    0.6064 H   0  0  0  0  0  0  0  0  0  0  0  0
   -2.3297   -1.6920    0.1153 H   0  0  0  0  0  0  0  0  0  0  0  0
   -3.0225    0.4668    1.7420 C   0  0  0  0  0  0  0  0  0  0  0  0
   -1.9921    0.1074    1.9354 H   0  0  0  0  0  0  0  0  0  0  0  0
   -3.7082   -0.0791    2.4209 H   0  0  0  0  0  0  0  0  0  0  0  0
   -3.0687    1.5402    2.0213 H   0  0  0  0  0  0  0  0  0  0  0  0
   -4.8536    0.7250    0.0223 C   0  0  0  0  0  0  0  0  0  0  0  0
   -4.9800    1.7982    0.2752 H   0  0  0  0  0  0  0  0  0  0  0  0
   -5.5736    0.1555    0.6442 H   0  0  0  0  0  0  0  0  0  0  0  0
   -5.1455    0.5858   -1.0397 H   0  0  0  0  0  0  0  0  0  0  0  0
  1 13  1  0  0  0  0
  2 13  2  0  0  0  0
  3  4  1  0  0  0  0
  4  6  2  0  0  0  0
  4  5  1  0  0  0  0
  6  7  1  0  0  0  0
  8  9  1  0  0  0  0
  8  6  1  0  0  0  0
 10  8  2  0  0  0  0
 11 10  1  0  0  0  0
 12 10  1  0  0  0  0
 12  3  2  0  0  0  0
 13 12  1  0  0  0  0
 14 15  1  6  0  0  0
 14 16  1  0  0  0  0
 14  2  1  0  0  0  0
 14 19  1  0  0  0  0
 16  1  1  0  0  0  0
 16 18  1  0  0  0  0
 17 16  1  0  0  0  0
 19 24  1  0  0  0  0
 20 23  1  0  0  0  0
 20 19  1  0  0  0  0
 20 22  1  0  0  0  0
 21 20  1  0  0  0  0
 24 25  1  0  0  0  0
 24 27  1  0  0  0  0
 24 26  1  0  0  0  0
 28 29  1  0  0  0  0
 28 19  1  0  0  0  0
 28 30  1  0  0  0  0
 31 28  1  0  0  0  0
M  END
