4
 OpenBabel05122313113D

 41 40  0  0  0  0  0  0  0  0999 V2000
    2.1798    0.5650   -1.4531 S   0  0  0  0  0  0  0  0  0  0  0  0
   -2.6436   -0.4480    0.6219 Si  0  0  0  0  0  0  0  0  0  0  0  0
    1.4137    2.6047    0.2288 N   0  0  0  0  0  0  0  0  0  0  0  0
   -0.8084   -0.3112    0.3154 C   0  0  0  0  0  3  0  0  0  0  0  0
   -0.0106    0.6510   -0.0426 C   0  0  0  0  0  0  0  0  0  0  0  0
    1.0968    1.4103   -0.3869 C   0  0  0  0  0  0  0  0  0  0  0  0
   -3.2554   -2.2393    0.5614 C   0  0  0  0  0  0  0  0  0  0  0  0
   -2.9021    0.1829    2.3948 C   0  0  0  0  0  0  0  0  0  0  0  0
   -3.6234    0.6557   -0.6291 C   0  0  0  0  0  0  0  0  0  0  0  0
   -5.1339    0.5094   -0.3700 C   0  0  0  0  0  0  0  0  0  0  0  0
   -3.2019    2.1247   -0.4437 C   0  0  0  0  0  0  0  0  0  0  0  0
   -3.2949    0.2129   -2.0662 C   0  0  0  0  0  0  0  0  0  0  0  0
    0.4720    3.2282    1.1533 C   0  0  0  0  0  0  0  0  0  0  0  0
   -0.1640    4.5192    0.6341 C   0  0  0  0  0  0  0  0  0  0  0  0
    2.6907    3.2570   -0.0363 C   0  0  0  0  0  0  0  0  0  0  0  0
    2.7434    4.0443   -1.3492 C   0  0  0  0  0  0  0  0  0  0  0  0
   -2.6618   -2.8619    1.2612 H   0  0  0  0  0  0  0  0  0  0  0  0
   -3.1839   -2.6944   -0.4458 H   0  0  0  0  0  0  0  0  0  0  0  0
   -4.3153   -2.2919    0.8835 H   0  0  0  0  0  0  0  0  0  0  0  0
   -2.5017    1.2087    2.5210 H   0  0  0  0  0  0  0  0  0  0  0  0
   -2.3761   -0.4757    3.1159 H   0  0  0  0  0  0  0  0  0  0  0  0
   -3.9773    0.1931    2.6681 H   0  0  0  0  0  0  0  0  0  0  0  0
   -5.4116    0.8108    0.6616 H   0  0  0  0  0  0  0  0  0  0  0  0
   -5.4830   -0.5327   -0.5228 H   0  0  0  0  0  0  0  0  0  0  0  0
   -5.7132    1.1557   -1.0674 H   0  0  0  0  0  0  0  0  0  0  0  0
   -2.1150    2.2585   -0.6208 H   0  0  0  0  0  0  0  0  0  0  0  0
   -3.4307    2.4991    0.5757 H   0  0  0  0  0  0  0  0  0  0  0  0
   -3.7425    2.7788   -1.1642 H   0  0  0  0  0  0  0  0  0  0  0  0
   -2.2134    0.3235   -2.2876 H   0  0  0  0  0  0  0  0  0  0  0  0
   -3.8519    0.8338   -2.8035 H   0  0  0  0  0  0  0  0  0  0  0  0
   -3.5792   -0.8443   -2.2525 H   0  0  0  0  0  0  0  0  0  0  0  0
    0.9910    3.4219    2.1202 H   0  0  0  0  0  0  0  0  0  0  0  0
   -0.3166    2.4785    1.3671 H   0  0  0  0  0  0  0  0  0  0  0  0
    0.5892    5.3162    0.4728 H   0  0  0  0  0  0  0  0  0  0  0  0
   -0.9034    4.9013    1.3669 H   0  0  0  0  0  0  0  0  0  0  0  0
   -0.6897    4.3409   -0.3251 H   0  0  0  0  0  0  0  0  0  0  0  0
    3.4760    2.4695   -0.0581 H   0  0  0  0  0  0  0  0  0  0  0  0
    2.9086    3.9198    0.8278 H   0  0  0  0  0  0  0  0  0  0  0  0
    1.9878    4.8539   -1.3751 H   0  0  0  0  0  0  0  0  0  0  0  0
    2.5596    3.3688   -2.2081 H   0  0  0  0  0  0  0  0  0  0  0  0
    3.7456    4.5005   -1.4824 H   0  0  0  0  0  0  0  0  0  0  0  0
  1  6  2  0  0  0  0
  2  8  1  0  0  0  0
  3 13  1  0  0  0  0
  4  2  1  0  0  0  0
  5  4  2  0  0  0  0
  6  5  2  0  0  0  0
  6  3  1  0  0  0  0
  7  2  1  0  0  0  0
  7 19  1  0  0  0  0
  7 17  1  0  0  0  0
  8 20  1  0  0  0  0
  8 22  1  0  0  0  0
  8 21  1  0  0  0  0
  9 11  1  0  0  0  0
  9 10  1  0  0  0  0
  9  2  1  0  0  0  0
 10 23  1  0  0  0  0
 11 27  1  0  0  0  0
 12  9  1  0  0  0  0
 13 33  1  0  0  0  0
 13 32  1  0  0  0  0
 14 13  1  0  0  0  0
 14 35  1  0  0  0  0
 15  3  1  0  0  0  0
 15 38  1  0  0  0  0
 16 15  1  0  0  0  0
 18  7  1  0  0  0  0
 24 10  1  0  0  0  0
 25 10  1  0  0  0  0
 26 11  1  0  0  0  0
 28 11  1  0  0  0  0
 29 12  1  0  0  0  0
 30 12  1  0  0  0  0
 31 12  1  0  0  0  0
 34 14  1  0  0  0  0
 36 14  1  0  0  0  0
 37 15  1  0  0  0  0
 39 16  1  0  0  0  0
 40 16  1  0  0  0  0
 41 16  1  0  0  0  0
M  END
