22
 OpenBabel05122313113D

 35 36  0  0  0  0  0  0  0  0999 V2000
   -5.0560    4.7281   -0.5714 O   0  0  0  0  0  0  0  0  0  0  0  0
    2.4827    1.9752    0.6766 N   0  0  0  0  0  0  0  0  0  0  0  0
   -3.5335    3.4280    0.5399 N   0  0  0  0  0  4  0  0  0  0  0  0
    2.8947    1.4713    2.0073 C   0  0  0  0  0  0  0  0  0  0  0  0
    2.5448    0.4260    2.1212 H   0  0  0  0  0  0  0  0  0  0  0  0
    2.3989    2.0837    2.7886 H   0  0  0  0  0  0  0  0  0  0  0  0
    4.4353    1.5977    2.0368 C   0  0  0  0  0  0  0  0  0  0  0  0
    4.7822    2.1906    2.9066 H   0  0  0  0  0  0  0  0  0  0  0  0
    4.9169    0.6012    2.1107 H   0  0  0  0  0  0  0  0  0  0  0  0
    4.7751    2.2653    0.7253 C   0  0  0  0  0  0  0  0  0  0  0  0
    6.0123    2.6613    0.2067 C   0  0  0  0  0  0  0  0  0  0  0  0
    6.9333    2.5206    0.7920 H   0  0  0  0  0  0  0  0  0  0  0  0
    6.0628    3.2399   -1.0743 C   0  0  0  0  0  0  0  0  0  0  0  0
    7.0293    3.5572   -1.4921 H   0  0  0  0  0  0  0  0  0  0  0  0
    4.8879    3.4148   -1.8277 C   0  0  0  0  0  0  0  0  0  0  0  0
    4.9430    3.8661   -2.8291 H   0  0  0  0  0  0  0  0  0  0  0  0
    3.6379    3.0234   -1.3204 C   0  0  0  0  0  0  0  0  0  0  0  0
    2.7266    3.1623   -1.9197 H   0  0  0  0  0  0  0  0  0  0  0  0
    3.6091    2.4569   -0.0386 C   0  0  0  0  0  0  0  0  0  0  0  0
    1.2257    1.9294    0.2251 C   0  0  0  0  0  0  0  0  0  0  0  0
    0.1381    1.3721    0.9248 C   0  0  0  0  0  0  0  0  0  0  0  0
   -1.2376    1.4186    0.4160 C   0  0  0  0  0  3  0  0  0  0  0  0
   -1.6633    2.3684   -0.6380 C   0  0  0  0  0  3  0  0  0  0  0  0
   -2.7156    3.2264   -0.5670 C   0  0  0  0  0  0  0  0  0  0  0  0
   -4.6798    4.2355    0.4806 C   0  0  0  0  0  0  0  0  0  0  0  0
   -5.3729    4.4553    1.8108 C   0  0  0  0  0  0  0  0  0  0  0  0
   -5.1144    5.4654    2.1903 H   0  0  0  0  0  0  0  0  0  0  0  0
   -5.1037    3.7100    2.5847 H   0  0  0  0  0  0  0  0  0  0  0  0
   -6.4665    4.4413    1.6480 H   0  0  0  0  0  0  0  0  0  0  0  0
   -3.2313    3.0782    1.4511 H   0  0  0  0  0  0  0  0  0  0  0  0
    1.0602    2.3794   -0.7655 H   0  0  0  0  0  0  0  0  0  0  0  0
    0.2902    1.0742    1.9736 H   0  0  0  0  0  0  0  0  0  0  0  0
   -1.9674    1.3118    1.2384 H   0  0  0  0  0  0  0  0  0  0  0  0
   -1.1114    2.3725   -1.5897 H   0  0  0  0  0  0  0  0  0  0  0  0
   -3.0223    3.8413   -1.4272 H   0  0  0  0  0  0  0  0  0  0  0  0
  1 25  2  0  0  0  0
  2  4  1  0  0  0  0
  3 30  1  0  0  0  0
  4  7  1  0  0  0  0
  4  5  1  0  0  0  0
  4  6  1  0  0  0  0
  7  9  1  0  0  0  0
  7  8  1  0  0  0  0
 10  7  1  0  0  0  0
 11 10  1  0  0  0  0
 11 12  1  0  0  0  0
 13 11  2  0  0  0  0
 14 13  1  0  0  0  0
 15 17  2  0  0  0  0
 15 13  1  0  0  0  0
 16 15  1  0  0  0  0
 17 19  1  0  0  0  0
 18 17  1  0  0  0  0
 19  2  1  0  0  0  0
 19 10  2  0  0  0  0
 20  2  1  0  0  0  0
 20 21  2  0  0  0  0
 21 32  1  0  0  0  0
 22 21  1  0  0  0  0
 22 33  1  0  0  0  0
 23 24  1  0  0  0  0
 23 22  1  0  0  0  0
 24  3  2  0  0  0  0
 25  3  1  0  0  0  0
 25 26  1  0  0  0  0
 26 27  1  0  0  0  0
 26 28  1  0  0  0  0
 29 26  1  0  0  0  0
 31 20  1  0  0  0  0
 34 23  1  0  0  0  0
 35 24  1  0  0  0  0
M  END
