29
 OpenBabel05122313113D

 40 47  0  0  1  0  0  0  0  0999 V2000
   -1.3603    0.6462   -0.0132 C   0  0  1  0  0  3  0  0  0  0  0  0
   -2.7033   -0.4190    0.1390 C   0  0  1  0  0  0  0  0  0  0  0  0
   -2.3665    0.2976   -1.3714 B   0  0  2  0  0  0  0  0  0  0  0  0
   -1.9325   -0.3827   -2.2618 H   0  0  0  0  0  0  0  0  0  0  0  0
   -1.8163    1.9455   -1.0381 B   0  0  1  0  0  0  0  0  0  0  0  0
   -0.9694    2.4091   -1.7608 H   0  0  0  0  0  0  0  0  0  0  0  0
   -1.7773    2.1429    0.7090 B   0  0  1  0  0  0  0  0  0  0  0  0
   -0.9230    2.7777    1.2551 H   0  0  0  0  0  0  0  0  0  0  0  0
   -2.2720    0.6119    1.4318 B   0  0  2  0  0  0  0  0  0  0  0  0
   -1.7801    0.1429    2.4271 H   0  0  0  0  0  0  0  0  0  0  0  0
   -4.0384    0.1453   -0.7731 B   0  0  1  0  0  0  0  0  0  0  0  0
   -4.7647   -0.6634   -1.2895 H   0  0  0  0  0  0  0  0  0  0  0  0
   -3.5033    1.6612   -1.5247 B   0  0  1  0  0  0  0  0  0  0  0  0
   -3.9063    1.9883   -2.6163 H   0  0  0  0  0  0  0  0  0  0  0  0
   -3.1388    2.8135   -0.2093 B   0  0  2  0  0  0  0  0  0  0  0  0
   -3.2701    4.0095   -0.3339 H   0  0  0  0  0  0  0  0  0  0  0  0
   -3.4197    1.9789    1.3498 B   0  0  2  0  0  0  0  0  0  0  0  0
   -3.7557    2.5437    2.3650 H   0  0  0  0  0  0  0  0  0  0  0  0
   -3.9807    0.3344    0.9860 B   0  0  2  0  0  0  0  0  0  0  0  0
   -4.6643   -0.3444    1.7096 H   0  0  0  0  0  0  0  0  0  0  0  0
   -4.5076    1.6917   -0.0399 B   0  0  2  0  0  0  0  0  0  0  0  0
   -5.6645    2.0447   -0.0446 H   0  0  0  0  0  0  0  0  0  0  0  0
   -2.3771   -1.9432    0.2859 C   0  0  0  0  0  0  0  0  0  0  0  0
   -0.8765   -2.1531    0.1124 C   0  0  0  0  0  0  0  0  0  0  0  0
   -0.2027   -2.4469   -1.1093 C   0  0  0  0  0  0  0  0  0  0  0  0
   -0.6536   -2.4657   -2.1061 H   0  0  0  0  0  0  0  0  0  0  0  0
    1.1725   -2.6889   -0.8241 C   0  0  0  0  0  0  0  0  0  0  0  0
    1.9467   -2.9341   -1.5610 H   0  0  0  0  0  0  0  0  0  0  0  0
    1.3575   -2.5550    0.5790 C   0  0  0  0  0  3  0  0  0  0  0  0
    2.2911   -2.7216    1.1226 H   0  0  0  0  0  0  0  0  0  0  0  0
    0.1042   -2.1974    1.1576 C   0  0  0  0  0  0  0  0  0  0  0  0
   -0.0867   -2.0327    2.2241 H   0  0  0  0  0  0  0  0  0  0  0  0
   -2.8087   -2.4864    1.6649 C   0  0  0  0  0  0  0  0  0  0  0  0
   -3.9088   -2.4550    1.7656 H   0  0  0  0  0  0  0  0  0  0  0  0
   -2.3795   -1.9067    2.5014 H   0  0  0  0  0  0  0  0  0  0  0  0
   -2.4803   -3.5393    1.7620 H   0  0  0  0  0  0  0  0  0  0  0  0
   -3.1214   -2.7738   -0.7822 C   0  0  0  0  0  0  0  0  0  0  0  0
   -2.9382   -2.4027   -1.8065 H   0  0  0  0  0  0  0  0  0  0  0  0
   -4.2115   -2.7479   -0.6029 H   0  0  0  0  0  0  0  0  0  0  0  0
   -2.7839   -3.8267   -0.7245 H   0  0  0  0  0  0  0  0  0  0  0  0
  1  7  1  0  0  0  0
  1  9  1  0  0  0  0
  2 23  1  0  0  0  0
  2 19  1  0  0  0  0
  2  9  1  0  0  0  0
  3  5  1  0  0  0  0
  3  2  1  0  0  0  0
  4  3  1  0  0  0  0
  5  1  1  0  0  0  0
  5  7  1  0  0  0  0
  6  5  1  0  0  0  0
  7  8  1  0  0  0  0
  7  9  1  0  0  0  0
  9 10  1  0  0  0  0
 11 21  1  0  0  0  0
 11 19  1  0  0  0  0
 12 11  1  0  0  0  0
 13  3  1  0  0  0  0
 13 11  1  0  0  0  0
 13 15  1  0  0  0  0
 14 13  1  0  0  0  0
 15 21  1  0  0  0  0
 15 17  1  0  0  0  0
 16 15  1  0  0  0  0
 17 18  1  0  0  0  0
 19 17  1  0  0  0  0
 19 20  1  0  0  0  0
 21 17  1  0  0  0  0
 22 21  1  0  0  0  0
 23 33  1  0  0  0  0
 24 23  1  0  0  0  0
 24 31  2  0  0  0  0
 25 27  2  0  0  0  0
 25 24  1  0  0  0  0
 26 25  1  0  0  0  0
 27 29  1  0  0  0  0
 28 27  1  0  0  0  0
 29 30  1  0  0  0  0
 29 31  1  0  0  0  0
 31 32  1  0  0  0  0
 33 36  1  0  0  0  0
 33 34  1  0  0  0  0
 33 35  1  0  0  0  0
 37 40  1  0  0  0  0
 37 39  1  0  0  0  0
 37 23  1  0  0  0  0
 38 37  1  0  0  0  0
M  END
