4
 OpenBabel05122313113D

 19 20  0  0  1  0  0  0  0  0999 V2000
   -1.9798    3.5318    0.4967 O   0  0  0  0  0  0  0  0  0  0  0  0
   -2.2186    2.3184    0.4438 C   0  0  0  0  0  0  0  0  0  0  0  0
   -1.4102    1.3305    1.1806 C   0  0  0  0  0  3  0  0  0  0  0  0
   -1.8259   -0.0593    1.3201 C   0  0  0  0  0  3  0  0  0  0  0  0
   -3.1953   -0.4449    0.8384 C   0  0  2  0  0  0  0  0  0  0  0  0
   -3.3483   -1.5196    0.6387 H   0  0  0  0  0  0  0  0  0  0  0  0
   -3.9844    0.4783   -0.0660 C   0  0  2  0  0  0  0  0  0  0  0  0
   -3.3618    1.8177   -0.4383 C   0  0  0  0  0  0  0  0  0  0  0  0
   -4.1264    2.6227   -0.4525 H   0  0  0  0  0  0  0  0  0  0  0  0
   -2.9654    1.7550   -1.4754 H   0  0  0  0  0  0  0  0  0  0  0  0
   -4.4265    0.2776    1.3697 C   0  0  0  0  0  0  0  0  0  0  0  0
   -5.3414   -0.3075    1.5575 H   0  0  0  0  0  0  0  0  0  0  0  0
   -4.2529    1.1021    2.0806 H   0  0  0  0  0  0  0  0  0  0  0  0
   -4.8144   -0.1459   -1.1716 C   0  0  0  0  0  0  0  0  0  0  0  0
   -5.6394    0.5303   -1.4815 H   0  0  0  0  0  0  0  0  0  0  0  0
   -5.2703   -1.1039   -0.8466 H   0  0  0  0  0  0  0  0  0  0  0  0
   -4.1804   -0.3414   -2.0615 H   0  0  0  0  0  0  0  0  0  0  0  0
   -0.7876    1.7896    1.9683 H   0  0  0  0  0  0  0  0  0  0  0  0
   -1.5799   -0.5149    2.2993 H   0  0  0  0  0  0  0  0  0  0  0  0
  2  1  2  0  0  0  0
  2  3  1  0  0  0  0
  3  4  1  0  0  0  0
  3 18  1  0  0  0  0
  4 19  1  0  0  0  0
  5  6  1  6  0  0  0
  5  4  1  0  0  0  0
  5 11  1  0  0  0  0
  7 14  1  6  0  0  0
  7  5  1  0  0  0  0
  7 11  1  0  0  0  0
  8  7  1  0  0  0  0
  8  2  1  0  0  0  0
  9  8  1  0  0  0  0
 10  8  1  0  0  0  0
 11 12  1  0  0  0  0
 11 13  1  0  0  0  0
 14 16  1  0  0  0  0
 15 14  1  0  0  0  0
 17 14  1  0  0  0  0
M  END
