8
 OpenBabel05122313113D

 27 27  0  0  1  0  0  0  0  0999 V2000
   -4.4462   -0.0065    0.6488 P   0  0  0  0  0  4  0  0  0  0  0  0
   -1.7288    3.4470   -0.5390 O   0  0  0  0  0  0  0  0  0  0  0  0
   -1.8451    2.2201   -0.6014 C   0  0  0  0  0  0  0  0  0  0  0  0
   -2.6415    1.6240   -1.7752 C   0  0  0  0  0  0  0  0  0  0  0  0
   -2.9546    0.1201   -1.7393 C   0  0  0  0  0  0  0  0  0  0  0  0
   -2.9304   -0.4733   -0.3233 C   0  0  1  0  0  0  0  0  0  0  0  0
   -1.6939   -0.0896    0.4807 C   0  0  0  0  0  3  0  0  0  0  0  0
   -1.2787    1.3183    0.4163 C   0  0  0  0  0  3  0  0  0  0  0  0
   -4.4177    1.6920    1.2833 C   0  0  0  0  0  0  0  0  0  0  0  0
   -4.5736   -1.1240    2.0785 C   0  0  0  0  0  0  0  0  0  0  0  0
   -5.9582   -0.2184   -0.3397 C   0  0  0  0  0  0  0  0  0  0  0  0
   -3.5616    2.2419   -1.8496 H   0  0  0  0  0  0  0  0  0  0  0  0
   -2.0705    1.8571   -2.6980 H   0  0  0  0  0  0  0  0  0  0  0  0
   -2.1951   -0.4312   -2.3230 H   0  0  0  0  0  0  0  0  0  0  0  0
   -3.9200   -0.0949   -2.2426 H   0  0  0  0  0  0  0  0  0  0  0  0
   -3.0455   -1.5796   -0.3948 H   0  0  0  0  0  0  0  0  0  0  0  0
   -1.7106   -0.5175    1.5002 H   0  0  0  0  0  0  0  0  0  0  0  0
   -0.9647    1.8406    1.3369 H   0  0  0  0  0  0  0  0  0  0  0  0
   -4.3835    2.4189    0.4501 H   0  0  0  0  0  0  0  0  0  0  0  0
   -3.5152    1.8365    1.9060 H   0  0  0  0  0  0  0  0  0  0  0  0
   -5.3294    1.8631    1.8891 H   0  0  0  0  0  0  0  0  0  0  0  0
   -3.6756   -1.0141    2.7163 H   0  0  0  0  0  0  0  0  0  0  0  0
   -4.6483   -2.1724    1.7296 H   0  0  0  0  0  0  0  0  0  0  0  0
   -5.4725   -0.8742    2.6751 H   0  0  0  0  0  0  0  0  0  0  0  0
   -5.9869   -1.2384   -0.7705 H   0  0  0  0  0  0  0  0  0  0  0  0
   -6.8511   -0.0659    0.2980 H   0  0  0  0  0  0  0  0  0  0  0  0
   -5.9713    0.5222   -1.1624 H   0  0  0  0  0  0  0  0  0  0  0  0
  1  9  1  0  0  0  0
  1 10  1  0  0  0  0
  3  2  2  0  0  0  0
  3  8  1  0  0  0  0
  4  5  1  0  0  0  0
  4  3  1  0  0  0  0
  5  6  1  0  0  0  0
  6 16  1  6  0  0  0
  6  7  1  0  0  0  0
  6  1  1  0  0  0  0
  7 17  1  0  0  0  0
  8  7  1  0  0  0  0
  8 18  1  0  0  0  0
  9 21  1  0  0  0  0
  9 20  1  0  0  0  0
 10 24  1  0  0  0  0
 10 22  1  0  0  0  0
 11 26  1  0  0  0  0
 11  1  1  0  0  0  0
 12  4  1  0  0  0  0
 13  4  1  0  0  0  0
 14  5  1  0  0  0  0
 15  5  1  0  0  0  0
 19  9  1  0  0  0  0
 23 10  1  0  0  0  0
 25 11  1  0  0  0  0
 27 11  1  0  0  0  0
M  END
