5
 OpenBabel05122313113D

 58 60  0  0  0  0  0  0  0  0999 V2000
   -2.3901   -0.1823   -0.2713 N   0  0  0  0  0  0  0  0  0  0  0  0
   -1.6834   -0.1354    0.4765 H   0  0  0  0  0  0  0  0  0  0  0  0
   -0.3832   -2.2259   -0.4165 N   0  0  0  0  0  0  0  0  0  0  0  0
    0.8955   -2.6458    1.2907 N   0  0  0  0  0  0  0  0  0  0  0  0
    0.6256   -1.6970    0.3473 C   0  0  0  0  0  2  0  0  0  0  0  0
    0.0724   -3.7529    1.1264 C   0  0  0  0  0  0  0  0  0  0  0  0
    0.1248   -4.6261    1.7819 H   0  0  0  0  0  0  0  0  0  0  0  0
   -0.7361   -3.4899    0.0538 C   0  0  0  0  0  0  0  0  0  0  0  0
   -1.5310   -4.0716   -0.4201 H   0  0  0  0  0  0  0  0  0  0  0  0
   -0.9655   -1.6565   -1.6015 C   0  0  0  0  0  0  0  0  0  0  0  0
   -0.5589   -2.1573   -2.8467 C   0  0  0  0  0  0  0  0  0  0  0  0
    0.2823   -2.8648   -2.8713 H   0  0  0  0  0  0  0  0  0  0  0  0
   -1.2125   -1.7648   -4.0208 C   0  0  0  0  0  0  0  0  0  0  0  0
   -0.8854   -2.1551   -4.9947 H   0  0  0  0  0  0  0  0  0  0  0  0
   -2.2960   -0.8745   -3.9251 C   0  0  0  0  0  0  0  0  0  0  0  0
   -2.8380   -0.5683   -4.8332 H   0  0  0  0  0  0  0  0  0  0  0  0
   -2.6935   -0.3526   -2.6911 C   0  0  0  0  0  0  0  0  0  0  0  0
   -3.5383    0.3475   -2.6281 H   0  0  0  0  0  0  0  0  0  0  0  0
   -2.0189   -0.7054   -1.4920 C   0  0  0  0  0  0  0  0  0  0  0  0
    1.9785   -2.5274    2.2868 C   0  0  0  0  0  0  0  0  0  0  0  0
    2.2909   -1.4651    2.2039 H   0  0  0  0  0  0  0  0  0  0  0  0
    1.4494   -2.7782    3.6974 C   0  0  0  0  0  0  0  0  0  0  0  0
    0.6039   -2.0984    3.9205 H   0  0  0  0  0  0  0  0  0  0  0  0
    2.2531   -2.5851    4.4346 H   0  0  0  0  0  0  0  0  0  0  0  0
    1.1158   -3.8275    3.8374 H   0  0  0  0  0  0  0  0  0  0  0  0
    3.1543   -3.4211    1.8885 C   0  0  0  0  0  0  0  0  0  0  0  0
    2.8739   -4.4948    1.9092 H   0  0  0  0  0  0  0  0  0  0  0  0
    3.9956   -3.2759    2.5947 H   0  0  0  0  0  0  0  0  0  0  0  0
    3.5043   -3.1650    0.8683 H   0  0  0  0  0  0  0  0  0  0  0  0
   -3.6066    0.5369   -0.0783 C   0  0  0  0  0  0  0  0  0  0  0  0
   -4.8027   -0.2137    0.1006 C   0  0  0  0  0  0  0  0  0  0  0  0
   -6.0094    0.4853    0.2751 C   0  0  0  0  0  0  0  0  0  0  0  0
   -6.9471   -0.0713    0.4146 H   0  0  0  0  0  0  0  0  0  0  0  0
   -6.0343    1.8875    0.2833 C   0  0  0  0  0  0  0  0  0  0  0  0
   -6.9882    2.4185    0.4250 H   0  0  0  0  0  0  0  0  0  0  0  0
   -4.8502    2.6111    0.1118 C   0  0  0  0  0  0  0  0  0  0  0  0
   -4.8812    3.7114    0.1153 H   0  0  0  0  0  0  0  0  0  0  0  0
   -3.6173    1.9550   -0.0780 C   0  0  0  0  0  0  0  0  0  0  0  0
   -4.7408   -1.7375    0.1477 C   0  0  0  0  0  0  0  0  0  0  0  0
   -4.0141   -2.0552   -0.6300 H   0  0  0  0  0  0  0  0  0  0  0  0
   -6.0733   -2.4239   -0.1722 C   0  0  0  0  0  0  0  0  0  0  0  0
   -6.8342   -2.2422    0.6152 H   0  0  0  0  0  0  0  0  0  0  0  0
   -5.9316   -3.5217   -0.2361 H   0  0  0  0  0  0  0  0  0  0  0  0
   -6.4927   -2.0774   -1.1381 H   0  0  0  0  0  0  0  0  0  0  0  0
   -4.1926   -2.2096    1.5087 C   0  0  0  0  0  0  0  0  0  0  0  0
   -3.2009   -1.7661    1.7225 H   0  0  0  0  0  0  0  0  0  0  0  0
   -4.0837   -3.3141    1.5276 H   0  0  0  0  0  0  0  0  0  0  0  0
   -4.8816   -1.9193    2.3287 H   0  0  0  0  0  0  0  0  0  0  0  0
   -2.3487    2.7626   -0.3213 C   0  0  0  0  0  0  0  0  0  0  0  0
   -1.4987    2.0561   -0.2218 H   0  0  0  0  0  0  0  0  0  0  0  0
   -2.3205    3.3290   -1.7526 C   0  0  0  0  0  0  0  0  0  0  0  0
   -2.3868    2.5223   -2.5086 H   0  0  0  0  0  0  0  0  0  0  0  0
   -1.3778    3.8865   -1.9370 H   0  0  0  0  0  0  0  0  0  0  0  0
   -3.1646    4.0298   -1.9229 H   0  0  0  0  0  0  0  0  0  0  0  0
   -2.1530    3.8702    0.7241 C   0  0  0  0  0  0  0  0  0  0  0  0
   -1.1799    4.3821    0.5741 H   0  0  0  0  0  0  0  0  0  0  0  0
   -2.1557    3.4560    1.7512 H   0  0  0  0  0  0  0  0  0  0  0  0
   -2.9435    4.6463    0.6576 H   0  0  0  0  0  0  0  0  0  0  0  0
  1 30  1  0  0  0  0
  1  2  1  0  0  0  0
  3  8  1  0  0  0  0
  3  5  1  0  0  0  0
  4 20  1  0  0  0  0
  5  4  1  0  0  0  0
  6  4  1  0  0  0  0
  6  7  1  0  0  0  0
  8  6  2  0  0  0  0
  9  8  1  0  0  0  0
 10 19  1  0  0  0  0
 10  3  1  0  0  0  0
 11 10  2  0  0  0  0
 12 11  1  0  0  0  0
 13 15  2  0  0  0  0
 13 11  1  0  0  0  0
 14 13  1  0  0  0  0
 15 17  1  0  0  0  0
 16 15  1  0  0  0  0
 17 18  1  0  0  0  0
 17 19  2  0  0  0  0
 19  1  1  0  0  0  0
 20 22  1  0  0  0  0
 21 20  1  0  0  0  0
 22 25  1  0  0  0  0
 22 23  1  0  0  0  0
 22 24  1  0  0  0  0
 26 27  1  0  0  0  0
 26 20  1  0  0  0  0
 26 28  1  0  0  0  0
 29 26  1  0  0  0  0
 30 38  2  0  0  0  0
 30 31  1  0  0  0  0
 31 39  1  0  0  0  0
 31 32  2  0  0  0  0
 32 34  1  0  0  0  0
 32 33  1  0  0  0  0
 34 35  1  0  0  0  0
 36 37  1  0  0  0  0
 36 34  2  0  0  0  0
 38 36  1  0  0  0  0
 39 45  1  0  0  0  0
 40 39  1  0  0  0  0
 41 39  1  0  0  0  0
 41 42  1  0  0  0  0
 43 41  1  0  0  0  0
 44 41  1  0  0  0  0
 45 47  1  0  0  0  0
 45 46  1  0  0  0  0
 45 48  1  0  0  0  0
 49 50  1  0  0  0  0
 49 38  1  0  0  0  0
 49 55  1  0  0  0  0
 51 49  1  0  0  0  0
 52 51  1  0  0  0  0
 53 51  1  0  0  0  0
 54 51  1  0  0  0  0
 55 57  1  0  0  0  0
 56 55  1  0  0  0  0
 58 55  1  0  0  0  0
M  END
