2
 OpenBabel05122313113D

 59 62  0  0  0  0  0  0  0  0999 V2000
   -0.9112   -0.4264    0.2668 P   0  0  0  0  0  0  0  0  0  0  0  0
    0.6032    2.0611   -1.0662 C   0  0  0  0  0  2  0  0  0  0  0  0
   -0.6426    3.9583   -1.3227 C   0  0  0  0  0  0  0  0  0  0  0  0
   -1.5017    4.5624   -1.6285 H   0  0  0  0  0  0  0  0  0  0  0  0
    0.5315    4.3098   -0.7075 C   0  0  0  0  0  0  0  0  0  0  0  0
    0.9022    5.2853   -0.3789 H   0  0  0  0  0  0  0  0  0  0  0  0
   -2.4980    0.5259    0.0041 C   0  0  0  0  0  0  0  0  0  0  0  0
   -1.6303    1.7474   -2.0901 C   0  0  0  0  0  0  0  0  0  0  0  0
   -1.1270    0.8266   -2.4494 H   0  0  0  0  0  0  0  0  0  0  0  0
   -2.0734    2.2667   -2.9623 H   0  0  0  0  0  0  0  0  0  0  0  0
   -3.5535    0.3181    0.9194 C   0  0  0  0  0  0  0  0  0  0  0  0
   -3.4077   -0.3709    1.7659 H   0  0  0  0  0  0  0  0  0  0  0  0
   -2.7086    1.4253   -1.0745 C   0  0  0  0  0  0  0  0  0  0  0  0
   -4.7866    0.9698    0.7862 C   0  0  0  0  0  0  0  0  0  0  0  0
   -5.5864    0.7869    1.5197 H   0  0  0  0  0  0  0  0  0  0  0  0
   -3.9567    2.0688   -1.2023 C   0  0  0  0  0  0  0  0  0  0  0  0
   -4.1150    2.7568   -2.0484 H   0  0  0  0  0  0  0  0  0  0  0  0
   -4.9928    1.8493   -0.2861 C   0  0  0  0  0  0  0  0  0  0  0  0
   -5.9577    2.3638   -0.4092 H   0  0  0  0  0  0  0  0  0  0  0  0
   -1.6162   -2.1672    0.1869 C   0  0  0  0  0  0  0  0  0  0  0  0
   -2.5860   -2.1459    0.7340 H   0  0  0  0  0  0  0  0  0  0  0  0
   -0.7120   -3.2265    0.8354 C   0  0  0  0  0  0  0  0  0  0  0  0
    0.3128   -3.1757    0.4097 H   0  0  0  0  0  0  0  0  0  0  0  0
   -0.6046   -3.0229    1.9205 H   0  0  0  0  0  0  0  0  0  0  0  0
   -1.8988   -2.4894   -1.2931 C   0  0  0  0  0  0  0  0  0  0  0  0
   -2.6052   -1.7436   -1.7172 H   0  0  0  0  0  0  0  0  0  0  0  0
   -0.9464   -2.3797   -1.8584 H   0  0  0  0  0  0  0  0  0  0  0  0
   -1.2747   -4.6415    0.6347 C   0  0  0  0  0  0  0  0  0  0  0  0
   -2.2369   -4.7417    1.1873 H   0  0  0  0  0  0  0  0  0  0  0  0
   -0.5770   -5.3805    1.0802 H   0  0  0  0  0  0  0  0  0  0  0  0
   -2.4465   -3.9105   -1.4783 C   0  0  0  0  0  0  0  0  0  0  0  0
   -2.5954   -4.1181   -2.5589 H   0  0  0  0  0  0  0  0  0  0  0  0
   -3.4517   -3.9816   -1.0044 H   0  0  0  0  0  0  0  0  0  0  0  0
   -1.5150   -4.9515   -0.8469 C   0  0  0  0  0  0  0  0  0  0  0  0
   -1.9324   -5.9730   -0.9697 H   0  0  0  0  0  0  0  0  0  0  0  0
   -0.5394   -4.9429   -1.3828 H   0  0  0  0  0  0  0  0  0  0  0  0
   -0.5229   -0.0779    2.0754 C   0  0  0  0  0  0  0  0  0  0  0  0
   -1.2446   -0.6574    2.6970 H   0  0  0  0  0  0  0  0  0  0  0  0
   -0.6715    1.4218    2.3992 C   0  0  0  0  0  0  0  0  0  0  0  0
   -1.7096    1.7637    2.2160 H   0  0  0  0  0  0  0  0  0  0  0  0
   -0.0257    1.9980    1.6995 H   0  0  0  0  0  0  0  0  0  0  0  0
    0.9125   -0.5490    2.3912 C   0  0  0  0  0  0  0  0  0  0  0  0
    1.0472   -1.6257    2.1753 H   0  0  0  0  0  0  0  0  0  0  0  0
    1.6065   -0.0233    1.6960 H   0  0  0  0  0  0  0  0  0  0  0  0
   -0.2636    1.7340    3.8460 C   0  0  0  0  0  0  0  0  0  0  0  0
   -0.3590    2.8244    4.0340 H   0  0  0  0  0  0  0  0  0  0  0  0
   -0.9785    1.2353    4.5391 H   0  0  0  0  0  0  0  0  0  0  0  0
    1.3101   -0.2405    3.8395 C   0  0  0  0  0  0  0  0  0  0  0  0
    0.6713   -0.8321    4.5341 H   0  0  0  0  0  0  0  0  0  0  0  0
    2.3535   -0.5757    4.0122 H   0  0  0  0  0  0  0  0  0  0  0  0
    1.1574    1.2505    4.1571 C   0  0  0  0  0  0  0  0  0  0  0  0
    1.8829    1.8284    3.5400 H   0  0  0  0  0  0  0  0  0  0  0  0
    1.4159    1.4571    5.2168 H   0  0  0  0  0  0  0  0  0  0  0  0
    2.5872    3.0580    0.0644 C   0  0  0  0  0  0  0  0  0  0  0  0
    2.4946    2.6630    1.0967 H   0  0  0  0  0  0  0  0  0  0  0  0
    3.0378    4.0665    0.1033 H   0  0  0  0  0  0  0  0  0  0  0  0
    3.2490    2.3839   -0.5112 H   0  0  0  0  0  0  0  0  0  0  0  0
   -0.5692    2.5894   -1.5397 N   0  0  0  0  0  0  0  0  0  0  0  0
    1.2775    3.1434   -0.5693 N   0  0  0  0  0  0  0  0  0  0  0  0
  1 37  1  0  0  0  0
  2 59  1  0  0  0  0
  3  5  2  0  0  0  0
  4  3  1  0  0  0  0
  5 59  1  0  0  0  0
  5  6  1  0  0  0  0
  7  1  1  0  0  0  0
  7 11  1  0  0  0  0
  8 58  1  0  0  0  0
  8 13  1  0  0  0  0
  9  8  1  0  0  0  0
 10  8  1  0  0  0  0
 11 12  1  0  0  0  0
 13  7  2  0  0  0  0
 14 11  2  0  0  0  0
 14 15  1  0  0  0  0
 16 13  1  0  0  0  0
 16 18  2  0  0  0  0
 17 16  1  0  0  0  0
 18 14  1  0  0  0  0
 19 18  1  0  0  0  0
 20  1  1  0  0  0  0
 20 21  1  0  0  0  0
 20 22  1  0  0  0  0
 22 24  1  0  0  0  0
 23 22  1  0  0  0  0
 25 20  1  0  0  0  0
 26 25  1  0  0  0  0
 27 25  1  0  0  0  0
 28 22  1  0  0  0  0
 28 30  1  0  0  0  0
 28 29  1  0  0  0  0
 31 25  1  0  0  0  0
 31 33  1  0  0  0  0
 31 34  1  0  0  0  0
 32 31  1  0  0  0  0
 34 28  1  0  0  0  0
 35 34  1  0  0  0  0
 36 34  1  0  0  0  0
 37 42  1  0  0  0  0
 37 39  1  0  0  0  0
 37 38  1  0  0  0  0
 39 45  1  0  0  0  0
 40 39  1  0  0  0  0
 41 39  1  0  0  0  0
 42 48  1  0  0  0  0
 43 42  1  0  0  0  0
 44 42  1  0  0  0  0
 45 46  1  0  0  0  0
 45 51  1  0  0  0  0
 45 47  1  0  0  0  0
 48 50  1  0  0  0  0
 48 51  1  0  0  0  0
 48 49  1  0  0  0  0
 51 53  1  0  0  0  0
 52 51  1  0  0  0  0
 54 56  1  0  0  0  0
 54 55  1  0  0  0  0
 57 54  1  0  0  0  0
 58  3  1  0  0  0  0
 58  2  1  0  0  0  0
 59 54  1  0  0  0  0
M  END
