10
 OpenBabel05122313113D

 18 18  0  0  0  0  0  0  0  0999 V2000
   -3.3712   -0.1834   -0.8026 N   0  0  0  0  0  0  0  0  0  0  0  0
   -1.4105   -0.9855    0.2196 C   0  0  0  0  0  0  0  0  0  0  0  0
   -0.8110   -1.4879   -0.9963 C   0  0  0  0  0  0  0  0  0  0  0  0
   -1.2322   -1.3454   -1.9964 H   0  0  0  0  0  0  0  0  0  0  0  0
   -4.4644    0.5867   -0.8543 N   0  0  0  0  0  0  0  0  0  0  0  0
   -5.1069    0.3330   -1.6055 H   0  0  0  0  0  0  0  0  0  0  0  0
   -4.9153    0.8977    0.0183 H   0  0  0  0  0  0  0  0  0  0  0  0
    0.3623   -2.2362   -0.6377 C   0  0  0  0  0  0  0  0  0  0  0  0
    1.0291   -2.7560   -1.3363 H   0  0  0  0  0  0  0  0  0  0  0  0
    0.5109   -2.1929    0.7839 C   0  0  0  0  0  3  0  0  0  0  0  0
    1.2966   -2.6825    1.3706 H   0  0  0  0  0  0  0  0  0  0  0  0
   -0.5788   -1.4079    1.3165 C   0  0  0  0  0  0  0  0  0  0  0  0
   -0.7619   -1.2158    2.3796 H   0  0  0  0  0  0  0  0  0  0  0  0
   -2.6487   -0.1945    0.2840 C   0  0  0  0  0  0  0  0  0  0  0  0
   -2.9949    0.6060    1.5114 C   0  0  0  0  0  0  0  0  0  0  0  0
   -2.9718    1.6936    1.2778 H   0  0  0  0  0  0  0  0  0  0  0  0
   -2.2892    0.4320    2.3421 H   0  0  0  0  0  0  0  0  0  0  0  0
   -4.0171    0.3696    1.8840 H   0  0  0  0  0  0  0  0  0  0  0  0
  1 14  2  0  0  0  0
  2 14  1  0  0  0  0
  2 12  2  0  0  0  0
  3  8  2  0  0  0  0
  3  2  1  0  0  0  0
  4  3  1  0  0  0  0
  5  1  1  0  0  0  0
  5  7  1  0  0  0  0
  6  5  1  0  0  0  0
  8 10  1  0  0  0  0
  9  8  1  0  0  0  0
 10 12  1  0  0  0  0
 10 11  1  0  0  0  0
 12 13  1  0  0  0  0
 14 15  1  0  0  0  0
 15 18  1  0  0  0  0
 15 17  1  0  0  0  0
 16 15  1  0  0  0  0
M  END
