1
 OpenBabel05122313113D

 23 23  0  0  0  0  0  0  0  0999 V2000
    0.2009    0.3775   -0.3008 C   0  0  0  0  0  3  0  0  0  0  0  0
    1.2432   -0.1467   -1.0779 C   0  0  0  0  0  0  0  0  0  0  0  0
    1.2603   -1.0044   -1.7566 H   0  0  0  0  0  0  0  0  0  0  0  0
    2.3467    0.6327   -0.8644 N   0  0  0  0  0  0  0  0  0  0  0  0
    3.7013    0.4402   -1.3879 C   0  0  0  0  0  0  0  0  0  0  0  0
    4.2294    1.3981   -1.2188 H   0  0  0  0  0  0  0  0  0  0  0  0
    3.6124    0.2812   -2.4807 H   0  0  0  0  0  0  0  0  0  0  0  0
    4.4293   -0.7269   -0.7149 C   0  0  0  0  0  0  0  0  0  0  0  0
    3.8788   -1.6709   -0.9223 H   0  0  0  0  0  0  0  0  0  0  0  0
    5.4131   -0.8326   -1.2213 H   0  0  0  0  0  0  0  0  0  0  0  0
    4.6304   -0.5586    0.7937 C   0  0  0  0  0  0  0  0  0  0  0  0
    3.6416   -0.4350    1.2861 H   0  0  0  0  0  0  0  0  0  0  0  0
    5.1797    0.3897    0.9839 H   0  0  0  0  0  0  0  0  0  0  0  0
    5.3758   -1.7334    1.4269 C   0  0  0  0  0  0  0  0  0  0  0  0
    6.3840   -1.8622    0.9810 H   0  0  0  0  0  0  0  0  0  0  0  0
    4.8246   -2.6856    1.2821 H   0  0  0  0  0  0  0  0  0  0  0  0
    5.5081   -1.5877    2.5171 H   0  0  0  0  0  0  0  0  0  0  0  0
    2.1134    1.6141   -0.0107 N   0  0  0  0  0  2  0  0  0  0  0  0
    0.8316    1.4494    0.3137 N   0  0  0  0  0  0  0  0  0  0  0  0
    0.2158    2.3849    1.2434 C   0  0  0  0  0  0  0  0  0  0  0  0
   -0.6059    2.9221    0.7335 H   0  0  0  0  0  0  0  0  0  0  0  0
    0.9899    3.0923    1.5881 H   0  0  0  0  0  0  0  0  0  0  0  0
   -0.2103    1.8215    2.0944 H   0  0  0  0  0  0  0  0  0  0  0  0
  1 19  1  0  0  0  0
  2  4  1  0  0  0  0
  2  1  2  0  0  0  0
  3  2  1  0  0  0  0
  4 18  1  0  0  0  0
  5  6  1  0  0  0  0
  5  4  1  0  0  0  0
  5  8  1  0  0  0  0
  7  5  1  0  0  0  0
  8 11  1  0  0  0  0
  9  8  1  0  0  0  0
 10  8  1  0  0  0  0
 11 13  1  0  0  0  0
 11 12  1  0  0  0  0
 11 14  1  0  0  0  0
 14 17  1  0  0  0  0
 15 14  1  0  0  0  0
 16 14  1  0  0  0  0
 18 19  1  0  0  0  0
 19 20  1  0  0  0  0
 20 22  1  0  0  0  0
 20 23  1  0  0  0  0
 21 20  1  0  0  0  0
M  END
