3
 OpenBabel05122313113D

 25 27  0  0  0  0  0  0  0  0999 V2000
   -3.7940   -5.5629   -0.3593 F   0  0  0  0  0  0  0  0  0  0  0  0
   -3.7433    5.5953    0.3577 F   0  0  0  0  0  0  0  0  0  0  0  0
    0.0905   -0.0013    0.0006 C   0  0  0  0  0  2  0  0  0  0  0  0
   -1.1343   -0.6873   -0.0293 C   0  0  0  0  0  0  0  0  0  0  0  0
   -1.1281    0.6955    0.0297 C   0  0  0  0  0  0  0  0  0  0  0  0
   -1.8364   -1.9393   -0.1066 C   0  0  0  0  0  0  0  0  0  0  0  0
   -1.1070   -3.1494    0.0194 C   0  0  0  0  0  0  0  0  0  0  0  0
   -0.0212   -3.0908    0.2134 H   0  0  0  0  0  0  0  0  0  0  0  0
   -1.7702   -4.3755   -0.0625 C   0  0  0  0  0  0  0  0  0  0  0  0
   -1.2334   -5.3293    0.0402 H   0  0  0  0  0  0  0  0  0  0  0  0
   -3.1563   -4.3868   -0.2781 C   0  0  0  0  0  0  0  0  0  0  0  0
   -3.9023   -3.2043   -0.4104 C   0  0  0  0  0  0  0  0  0  0  0  0
   -4.9861   -3.2674   -0.5814 H   0  0  0  0  0  0  0  0  0  0  0  0
   -3.2369   -1.9808   -0.3197 C   0  0  0  0  0  0  0  0  0  0  0  0
   -3.7990   -1.0419   -0.4312 H   0  0  0  0  0  0  0  0  0  0  0  0
   -1.8188    1.9539    0.1065 C   0  0  0  0  0  0  0  0  0  0  0  0
   -3.2191    2.0082    0.3184 C   0  0  0  0  0  0  0  0  0  0  0  0
   -3.7898    1.0745    0.4295 H   0  0  0  0  0  0  0  0  0  0  0  0
   -3.8733    3.2378    0.4086 C   0  0  0  0  0  0  0  0  0  0  0  0
   -4.9566    3.3108    0.5788 H   0  0  0  0  0  0  0  0  0  0  0  0
   -3.1164    4.4134    0.2769 C   0  0  0  0  0  0  0  0  0  0  0  0
   -1.7302    4.3894    0.0625 C   0  0  0  0  0  0  0  0  0  0  0  0
   -1.1847    5.3383   -0.0398 H   0  0  0  0  0  0  0  0  0  0  0  0
   -1.0782    3.1573   -0.0189 C   0  0  0  0  0  0  0  0  0  0  0  0
    0.0071    3.0887   -0.2121 H   0  0  0  0  0  0  0  0  0  0  0  0
  1 11  1  0  0  0  0
  3  5  1  0  0  0  0
  4  3  1  0  0  0  0
  4  5  2  0  0  0  0
  5 16  1  0  0  0  0
  6  4  1  0  0  0  0
  6  7  1  0  0  0  0
  7  8  1  0  0  0  0
  9  7  2  0  0  0  0
  9 10  1  0  0  0  0
 11  9  1  0  0  0  0
 12 14  1  0  0  0  0
 12 11  2  0  0  0  0
 13 12  1  0  0  0  0
 14  6  2  0  0  0  0
 15 14  1  0  0  0  0
 16 17  1  0  0  0  0
 17 19  2  0  0  0  0
 17 18  1  0  0  0  0
 19 20  1  0  0  0  0
 21  2  1  0  0  0  0
 21 19  1  0  0  0  0
 22 21  2  0  0  0  0
 23 22  1  0  0  0  0
 24 22  1  0  0  0  0
 24 16  2  0  0  0  0
 25 24  1  0  0  0  0
M  END
