9
 OpenBabel05122313113D

 34 35  0  0  0  0  0  0  0  0999 V2000
    3.0307   -1.9364   -1.1013 S   0  0  0  0  0  0  0  0  0  0  0  0
    5.0536   -1.0838   -2.5638 O   0  0  0  0  0  0  0  0  0  0  0  0
    5.8731    0.9345   -2.7663 O   0  0  0  0  0  0  0  0  0  0  0  0
    5.1485    4.2245    0.6598 O   0  0  0  0  0  0  0  0  0  0  0  0
    3.4032    3.9989    1.9623 O   0  0  0  0  0  0  0  0  0  0  0  0
    2.5976   -3.8996    1.3182 N   0  0  0  0  0  0  0  0  0  0  0  0
    5.1774    0.0917   -2.2010 N   0  0  0  0  0  0  0  0  0  0  0  0
    4.2124    3.5765    1.1252 N   0  0  0  0  0  0  0  0  0  0  0  0
   -0.6830   -1.2895    0.3694 C   0  0  0  0  0  3  0  0  0  0  0  0
   -0.6812   -2.0880    1.5310 C   0  0  0  0  0  0  0  0  0  0  0  0
   -1.5133   -2.0332    2.2477 H   0  0  0  0  0  0  0  0  0  0  0  0
    0.3655   -2.9783    1.8153 C   0  0  0  0  0  0  0  0  0  0  0  0
    0.2918   -3.6035    2.7162 H   0  0  0  0  0  0  0  0  0  0  0  0
    1.5100   -3.0803    0.9859 C   0  0  0  0  0  0  0  0  0  0  0  0
    1.5272   -2.2318   -0.1594 C   0  0  0  0  0  0  0  0  0  0  0  0
    0.4276   -1.4101   -0.4814 C   0  0  0  0  0  0  0  0  0  0  0  0
    0.5152   -0.7981   -1.3905 H   0  0  0  0  0  0  0  0  0  0  0  0
    3.1204   -4.8332    0.3310 C   0  0  0  0  0  0  0  0  0  0  0  0
    2.6380   -5.8385    0.4216 H   0  0  0  0  0  0  0  0  0  0  0  0
    4.2158   -4.9641    0.4572 H   0  0  0  0  0  0  0  0  0  0  0  0
    2.9445   -4.4668   -0.6949 H   0  0  0  0  0  0  0  0  0  0  0  0
    2.7019   -4.3940    2.6747 C   0  0  0  0  0  0  0  0  0  0  0  0
    2.5015   -3.5824    3.4007 H   0  0  0  0  0  0  0  0  0  0  0  0
    3.7352   -4.7591    2.8465 H   0  0  0  0  0  0  0  0  0  0  0  0
    2.0079   -5.2438    2.8996 H   0  0  0  0  0  0  0  0  0  0  0  0
    3.4795   -0.3797   -0.3934 C   0  0  0  0  0  0  0  0  0  0  0  0
    4.4339    0.4923   -0.9961 C   0  0  0  0  0  0  0  0  0  0  0  0
    4.6960    1.7735   -0.4956 C   0  0  0  0  0  0  0  0  0  0  0  0
    5.4098    2.4238   -1.0164 H   0  0  0  0  0  0  0  0  0  0  0  0
    4.0196    2.2020    0.6439 C   0  0  0  0  0  0  0  0  0  0  0  0
    3.1269    1.3486    1.3183 C   0  0  0  0  0  0  0  0  0  0  0  0
    2.6374    1.6973    2.2366 H   0  0  0  0  0  0  0  0  0  0  0  0
    2.8687    0.0844    0.8065 C   0  0  0  0  0  0  0  0  0  0  0  0
    2.1572   -0.5688    1.3268 H   0  0  0  0  0  0  0  0  0  0  0  0
  1 26  1  0  0  0  0
  1 15  1  0  0  0  0
  2  7  2  0  0  0  0
  3  7  2  0  0  0  0
  4  8  2  0  0  0  0
  6 22  1  0  0  0  0
  7 27  1  0  0  0  0
  8  5  2  0  0  0  0
  9 10  1  0  0  0  0
 10 12  2  0  0  0  0
 10 11  1  0  0  0  0
 12 13  1  0  0  0  0
 14  6  1  0  0  0  0
 14 12  1  0  0  0  0
 15 14  2  0  0  0  0
 16 15  1  0  0  0  0
 16  9  2  0  0  0  0
 17 16  1  0  0  0  0
 18 19  1  0  0  0  0
 18 20  1  0  0  0  0
 18  6  1  0  0  0  0
 21 18  1  0  0  0  0
 22 24  1  0  0  0  0
 22 25  1  0  0  0  0
 22 23  1  0  0  0  0
 26 33  1  0  0  0  0
 27 28  1  0  0  0  0
 27 26  2  0  0  0  0
 28 30  2  0  0  0  0
 29 28  1  0  0  0  0
 30  8  1  0  0  0  0
 30 31  1  0  0  0  0
 31 32  1  0  0  0  0
 33 31  2  0  0  0  0
 33 34  1  0  0  0  0
M  END
