2
 OpenBabel05122313113D

 26 27  0  0  0  0  0  0  0  0999 V2000
   -2.4069    1.4297   -1.7547 P   0  0  1  0  0  0  0  0  0  0  0  0
   -0.9344    0.7925   -0.9419 C   0  0  0  0  0  1  0  0  0  0  0  0
   -3.5638    0.2301   -1.1593 C   0  0  0  0  0  0  0  0  0  0  0  0
   -4.2770   -0.7160   -0.8105 C   0  0  0  0  0  0  0  0  0  0  0  0
   -2.7200    2.8908   -0.6548 C   0  0  0  0  0  0  0  0  0  0  0  0
   -2.2489    4.1433   -1.0942 C   0  0  0  0  0  0  0  0  0  0  0  0
   -2.3681    5.2700   -0.2658 C   0  0  0  0  0  0  0  0  0  0  0  0
   -2.9719    5.1532    0.9954 C   0  0  0  0  0  0  0  0  0  0  0  0
   -3.4524    3.9067    1.4298 C   0  0  0  0  0  0  0  0  0  0  0  0
   -3.3247    2.7753    0.6118 C   0  0  0  0  0  0  0  0  0  0  0  0
   -5.0608   -1.8147   -0.3509 C   0  0  0  0  0  0  0  0  0  0  0  0
   -6.1863   -2.2700   -1.0835 C   0  0  0  0  0  0  0  0  0  0  0  0
   -6.9375   -3.3563   -0.6201 C   0  0  0  0  0  0  0  0  0  0  0  0
   -6.5810   -4.0068    0.5733 C   0  0  0  0  0  0  0  0  0  0  0  0
   -5.4675   -3.5629    1.3066 C   0  0  0  0  0  0  0  0  0  0  0  0
   -4.7102   -2.4755    0.8562 C   0  0  0  0  0  0  0  0  0  0  0  0
   -1.7831    4.2348   -2.0886 H   0  0  0  0  0  0  0  0  0  0  0  0
   -1.9918    6.2452   -0.6108 H   0  0  0  0  0  0  0  0  0  0  0  0
   -3.0673    6.0370    1.6444 H   0  0  0  0  0  0  0  0  0  0  0  0
   -3.9227    3.8120    2.4206 H   0  0  0  0  0  0  0  0  0  0  0  0
   -3.6826    1.7926    0.9553 H   0  0  0  0  0  0  0  0  0  0  0  0
   -6.4579   -1.7577   -2.0179 H   0  0  0  0  0  0  0  0  0  0  0  0
   -7.8098   -3.7008   -1.1961 H   0  0  0  0  0  0  0  0  0  0  0  0
   -7.1736   -4.8617    0.9330 H   0  0  0  0  0  0  0  0  0  0  0  0
   -5.1868   -4.0690    2.2429 H   0  0  0  0  0  0  0  0  0  0  0  0
   -3.8404   -2.1161    1.4254 H   0  0  0  0  0  0  0  0  0  0  0  0
  1  3  1  0  0  0  0
  1  2  1  1  0  0  0
  1  5  1  0  0  0  0
  3  4  3  0  0  0  0
  4 11  1  0  0  0  0
  5 10  1  0  0  0  0
  6  5  2  0  0  0  0
  6  7  1  0  0  0  0
  7  8  2  0  0  0  0
  8  9  1  0  0  0  0
  8 19  1  0  0  0  0
  9 20  1  0  0  0  0
 10 21  1  0  0  0  0
 10  9  2  0  0  0  0
 11 16  1  0  0  0  0
 12 13  1  0  0  0  0
 12 11  2  0  0  0  0
 13 14  2  0  0  0  0
 14 24  1  0  0  0  0
 14 15  1  0  0  0  0
 15 25  1  0  0  0  0
 16 15  2  0  0  0  0
 16 26  1  0  0  0  0
 17  6  1  0  0  0  0
 18  7  1  0  0  0  0
 22 12  1  0  0  0  0
 23 13  1  0  0  0  0
M  END
