6
 OpenBabel05122313113D

 26 28  0  0  0  0  0  0  0  0999 V2000
    2.6124   -1.5927   -0.4882 N   0  0  0  0  0  0  0  0  0  0  0  0
    1.4714   -1.6986    0.2756 C   0  0  0  0  0  0  0  0  0  0  0  0
    0.3708   -2.5749    0.4606 C   0  0  0  0  0  0  0  0  0  0  0  0
    0.1251   -3.4796   -0.1048 H   0  0  0  0  0  0  0  0  0  0  0  0
   -0.3622   -2.0763    1.5979 C   0  0  0  0  0  0  0  0  0  0  0  0
    0.2302   -0.8452    2.0269 C   0  0  0  0  0  3  0  0  0  0  0  0
   -0.0836   -0.2758    2.9063 H   0  0  0  0  0  0  0  0  0  0  0  0
    1.3771   -0.5948    1.1921 C   0  0  0  0  0  0  0  0  0  0  0  0
    2.5513    0.2283    0.9549 C   0  0  0  0  0  0  0  0  0  0  0  0
    3.0976    1.3890    1.5328 C   0  0  0  0  0  0  0  0  0  0  0  0
    2.6057    1.8681    2.3921 H   0  0  0  0  0  0  0  0  0  0  0  0
    4.2868    1.9238    1.0159 C   0  0  0  0  0  0  0  0  0  0  0  0
    4.7140    2.8334    1.4632 H   0  0  0  0  0  0  0  0  0  0  0  0
    4.9415    1.3077   -0.0714 C   0  0  0  0  0  0  0  0  0  0  0  0
    5.8653    1.7524   -0.4713 H   0  0  0  0  0  0  0  0  0  0  0  0
    4.4419    0.1315   -0.6495 C   0  0  0  0  0  0  0  0  0  0  0  0
    4.9599   -0.3457   -1.4935 H   0  0  0  0  0  0  0  0  0  0  0  0
    3.2623   -0.4143   -0.1202 C   0  0  0  0  0  0  0  0  0  0  0  0
   -1.5098   -2.7824    2.2591 C   0  0  0  0  0  0  0  0  0  0  0  0
   -1.1312   -3.5901    2.9212 H   0  0  0  0  0  0  0  0  0  0  0  0
   -2.1845   -3.2414    1.5107 H   0  0  0  0  0  0  0  0  0  0  0  0
   -2.1061   -2.0918    2.8854 H   0  0  0  0  0  0  0  0  0  0  0  0
    2.9739   -2.4457   -1.5971 C   0  0  0  0  0  0  0  0  0  0  0  0
    2.4490   -3.4135   -1.4931 H   0  0  0  0  0  0  0  0  0  0  0  0
    4.0649   -2.6412   -1.5891 H   0  0  0  0  0  0  0  0  0  0  0  0
    2.6848   -1.9899   -2.5671 H   0  0  0  0  0  0  0  0  0  0  0  0
  1 18  1  0  0  0  0
  1  2  1  0  0  0  0
  2  3  1  0  0  0  0
  2  8  2  0  0  0  0
  3  5  2  0  0  0  0
  4  3  1  0  0  0  0
  5  6  1  0  0  0  0
  5 19  1  0  0  0  0
  6  7  1  0  0  0  0
  8  6  1  0  0  0  0
  9  8  1  0  0  0  0
  9 10  1  0  0  0  0
 10 11  1  0  0  0  0
 12 13  1  0  0  0  0
 12 10  2  0  0  0  0
 14 12  1  0  0  0  0
 15 14  1  0  0  0  0
 16 18  1  0  0  0  0
 16 14  2  0  0  0  0
 17 16  1  0  0  0  0
 18  9  2  0  0  0  0
 19 22  1  0  0  0  0
 19 20  1  0  0  0  0
 21 19  1  0  0  0  0
 23 25  1  0  0  0  0
 23 24  1  0  0  0  0
 23  1  1  0  0  0  0
 26 23  1  0  0  0  0
M  END
