3
 OpenBabel05122313113D

 13 13  0  0  0  0  0  0  0  0999 V2000
    9.0250   -0.3948   -1.5860 I   0  0  0  0  0  0  0  0  0  0  0  0
    2.7579    0.0378   -1.8340 N   0  0  0  0  0  2  0  0  0  0  0  0
    1.5790    0.1987   -1.7350 C   0  0  0  0  0  1  0  0  0  0  0  0
    4.1262   -0.0574   -1.7872 C   0  0  0  0  0  0  0  0  0  0  0  0
    4.8391    0.5984   -0.7559 C   0  0  0  0  0  0  0  0  0  0  0  0
    4.2898    1.1838   -0.0041 H   0  0  0  0  0  0  0  0  0  0  0  0
    6.2325    0.5009   -0.7004 C   0  0  0  0  0  0  0  0  0  0  0  0
    6.7839    1.0116    0.1016 H   0  0  0  0  0  0  0  0  0  0  0  0
    6.9207   -0.2490   -1.6730 C   0  0  0  0  0  0  0  0  0  0  0  0
    6.2173   -0.9018   -2.7024 C   0  0  0  0  0  0  0  0  0  0  0  0
    6.7571   -1.4862   -3.4607 H   0  0  0  0  0  0  0  0  0  0  0  0
    4.8232   -0.8070   -2.7610 C   0  0  0  0  0  0  0  0  0  0  0  0
    4.2622   -1.3128   -3.5594 H   0  0  0  0  0  0  0  0  0  0  0  0
  2  4  1  0  0  0  0
  2  3  1  0  0  0  0
  4  5  1  0  0  0  0
  5  7  2  0  0  0  0
  5  6  1  0  0  0  0
  7  8  1  0  0  0  0
  9  1  1  0  0  0  0
  9  7  1  0  0  0  0
 10  9  2  0  0  0  0
 11 10  1  0  0  0  0
 12 10  1  0  0  0  0
 12  4  2  0  0  0  0
 13 12  1  0  0  0  0
M  END
