16
 OpenBabel05122313113D

 55 59  0  0  0  0  0  0  0  0999 V2000
   -0.6493   -4.3012    0.3921 C   0  0  0  0  0  0  0  0  0  0  0  0
   -1.3116   -4.2358    1.2694 H   0  0  0  0  0  0  0  0  0  0  0  0
   -0.8049   -5.3505   -0.5270 C   0  0  0  0  0  0  0  0  0  0  0  0
   -1.5855   -6.1088   -0.3628 H   0  0  0  0  0  0  0  0  0  0  0  0
    0.0305   -5.4296   -1.6516 C   0  0  0  0  0  0  0  0  0  0  0  0
   -0.0908   -6.2526   -2.3724 H   0  0  0  0  0  0  0  0  0  0  0  0
    1.0257   -4.4583   -1.8529 C   0  0  0  0  0  0  0  0  0  0  0  0
    1.6897   -4.5204   -2.7284 H   0  0  0  0  0  0  0  0  0  0  0  0
    1.1823   -3.4106   -0.9351 C   0  0  0  0  0  0  0  0  0  0  0  0
    1.9629   -2.6471   -1.0886 H   0  0  0  0  0  0  0  0  0  0  0  0
    0.3443   -3.3239    0.1948 C   0  0  0  0  0  0  0  0  0  0  0  0
    0.4985   -2.1655    1.1591 C   0  0  0  0  0  0  0  0  0  0  0  0
   -0.0256   -2.3739    2.1094 H   0  0  0  0  0  0  0  0  0  0  0  0
    1.5660   -1.9709    1.3836 H   0  0  0  0  0  0  0  0  0  0  0  0
   -0.0195   -0.9102    0.5958 N   0  0  0  0  0  0  0  0  0  0  0  0
    0.7813    0.0254   -0.0015 C   0  0  0  0  0  2  0  0  0  0  0  0
   -1.3719   -0.6277    0.3786 C   0  0  0  0  0  0  0  0  0  0  0  0
   -2.4850   -1.4603    0.8643 C   0  0  0  0  0  0  0  0  0  0  0  0
   -3.4354   -1.9669   -0.0486 C   0  0  0  0  0  0  0  0  0  0  0  0
   -3.3253   -1.7368   -1.1182 H   0  0  0  0  0  0  0  0  0  0  0  0
   -4.4904   -2.7721    0.3998 C   0  0  0  0  0  0  0  0  0  0  0  0
   -5.2199   -3.1666   -0.3234 H   0  0  0  0  0  0  0  0  0  0  0  0
   -4.6102   -3.0862    1.7633 C   0  0  0  0  0  0  0  0  0  0  0  0
   -5.4353   -3.7250    2.1127 H   0  0  0  0  0  0  0  0  0  0  0  0
   -3.6777   -2.5761    2.6811 C   0  0  0  0  0  0  0  0  0  0  0  0
   -3.7757   -2.8046    3.7531 H   0  0  0  0  0  0  0  0  0  0  0  0
   -2.6255   -1.7629    2.2373 C   0  0  0  0  0  0  0  0  0  0  0  0
   -1.9133   -1.3418    2.9630 H   0  0  0  0  0  0  0  0  0  0  0  0
   -1.4122    0.5294   -0.3792 C   0  0  0  0  0  0  0  0  0  0  0  0
   -2.5801    1.2833   -0.8641 C   0  0  0  0  0  0  0  0  0  0  0  0
   -2.7410    1.5779   -2.2366 C   0  0  0  0  0  0  0  0  0  0  0  0
   -2.0013    1.2084   -2.9630 H   0  0  0  0  0  0  0  0  0  0  0  0
   -3.8473    2.3162   -2.6795 C   0  0  0  0  0  0  0  0  0  0  0  0
   -3.9608    2.5390   -3.7512 H   0  0  0  0  0  0  0  0  0  0  0  0
   -4.8136    2.7584   -1.7613 C   0  0  0  0  0  0  0  0  0  0  0  0
   -5.6810    3.3387   -2.1100 H   0  0  0  0  0  0  0  0  0  0  0  0
   -4.6726    2.4508   -0.3984 C   0  0  0  0  0  0  0  0  0  0  0  0
   -5.4282    2.7919    0.3253 H   0  0  0  0  0  0  0  0  0  0  0  0
   -3.5642    1.7204    0.0490 C   0  0  0  0  0  0  0  0  0  0  0  0
   -3.4389    1.4964    1.1183 H   0  0  0  0  0  0  0  0  0  0  0  0
   -0.0824    0.9037   -0.5979 N   0  0  0  0  0  0  0  0  0  0  0  0
    0.3472    2.1927   -1.1589 C   0  0  0  0  0  0  0  0  0  0  0  0
   -0.1815    2.3614   -2.1146 H   0  0  0  0  0  0  0  0  0  0  0  0
    1.4282    2.0767   -1.3732 H   0  0  0  0  0  0  0  0  0  0  0  0
    0.0987    3.3378   -0.1983 C   0  0  0  0  0  0  0  0  0  0  0  0
   -0.9527    4.2477   -0.4160 C   0  0  0  0  0  0  0  0  0  0  0  0
   -1.5930    4.1379   -1.3050 H   0  0  0  0  0  0  0  0  0  0  0  0
   -1.1945    5.2846    0.4986 C   0  0  0  0  0  0  0  0  0  0  0  0
   -2.0199    5.9901    0.3185 H   0  0  0  0  0  0  0  0  0  0  0  0
   -0.3884    5.4179    1.6392 C   0  0  0  0  0  0  0  0  0  0  0  0
   -0.5773    6.2310    2.3567 H   0  0  0  0  0  0  0  0  0  0  0  0
    0.6638    4.5133    1.8614 C   0  0  0  0  0  0  0  0  0  0  0  0
    1.3046    4.6185    2.7499 H   0  0  0  0  0  0  0  0  0  0  0  0
    0.9067    3.4783    0.9480 C   0  0  0  0  0  0  0  0  0  0  0  0
    1.7326    2.7676    1.1172 H   0  0  0  0  0  0  0  0  0  0  0  0
  1  2  1  0  0  0  0
  3  4  1  0  0  0  0
  3  1  2  0  0  0  0
  5  3  1  0  0  0  0
  6  5  1  0  0  0  0
  7  5  2  0  0  0  0
  7  9  1  0  0  0  0
  8  7  1  0  0  0  0
  9 11  2  0  0  0  0
 10  9  1  0  0  0  0
 11  1  1  0  0  0  0
 11 12  1  0  0  0  0
 12 14  1  0  0  0  0
 12 13  1  0  0  0  0
 15 12  1  0  0  0  0
 16 15  1  0  0  0  0
 17 15  1  0  0  0  0
 17 18  1  0  0  0  0
 18 27  1  0  0  0  0
 19 21  1  0  0  0  0
 19 18  2  0  0  0  0
 20 19  1  0  0  0  0
 21 23  2  0  0  0  0
 22 21  1  0  0  0  0
 23 24  1  0  0  0  0
 23 25  1  0  0  0  0
 25 26  1  0  0  0  0
 27 25  2  0  0  0  0
 27 28  1  0  0  0  0
 29 17  2  0  0  0  0
 30 29  1  0  0  0  0
 30 39  1  0  0  0  0
 31 30  2  0  0  0  0
 32 31  1  0  0  0  0
 33 31  1  0  0  0  0
 33 35  2  0  0  0  0
 34 33  1  0  0  0  0
 35 37  1  0  0  0  0
 36 35  1  0  0  0  0
 37 39  2  0  0  0  0
 37 38  1  0  0  0  0
 39 40  1  0  0  0  0
 41 29  1  0  0  0  0
 41 16  1  0  0  0  0
 42 41  1  0  0  0  0
 42 45  1  0  0  0  0
 43 42  1  0  0  0  0
 44 42  1  0  0  0  0
 45 54  1  0  0  0  0
 46 45  2  0  0  0  0
 46 48  1  0  0  0  0
 47 46  1  0  0  0  0
 48 50  2  0  0  0  0
 49 48  1  0  0  0  0
 50 52  1  0  0  0  0
 50 51  1  0  0  0  0
 52 53  1  0  0  0  0
 54 55  1  0  0  0  0
 54 52  2  0  0  0  0
M  END
