6
 OpenBabel05122313113D

 56 57  0  0  1  0  0  0  0  0999 V2000
   -0.4582    2.2483    0.7617 Cl  0  0  0  0  0  0  0  0  0  0  0  0
    3.0483    2.2523   -0.6026 Si  0  0  0  0  0  0  0  0  0  0  0  0
    2.1361    0.9778    0.1613 O   0  0  0  0  0  0  0  0  0  0  0  0
   -2.4261    1.2698   -1.2039 O   0  0  0  0  0  0  0  0  0  0  0  0
   -0.7614    1.0309   -2.7333 O   0  0  0  0  0  0  0  0  0  0  0  0
   -0.2578    0.8689   -0.3736 C   0  0  2  0  0  3  0  0  0  0  0  0
    1.1124    0.3740   -0.4971 C   0  0  2  0  0  3  0  0  0  0  0  0
   -4.7526    0.9823   -1.6526 C   0  0  0  0  0  0  0  0  0  0  0  0
    2.4549   -1.6892   -1.3328 C   0  0  0  0  0  0  0  0  0  0  0  0
    1.2536   -0.8400   -1.2520 C   0  0  0  0  0  3  0  0  0  0  0  0
    0.5639   -0.9542   -2.1018 H   0  0  0  0  0  0  0  0  0  0  0  0
    2.4300   -2.7540   -2.2680 C   0  0  0  0  0  0  0  0  0  0  0  0
    1.5310   -2.8853   -2.8899 H   0  0  0  0  0  0  0  0  0  0  0  0
   -3.4119    1.2933   -2.2616 C   0  0  0  0  0  0  0  0  0  0  0  0
   -3.1123    0.5422   -3.0210 H   0  0  0  0  0  0  0  0  0  0  0  0
   -3.4035    2.2928   -2.7449 H   0  0  0  0  0  0  0  0  0  0  0  0
   -1.1507    1.0534   -1.5784 C   0  0  0  0  0  0  0  0  0  0  0  0
   -4.9796   -0.2844   -1.0741 C   0  0  0  0  0  0  0  0  0  0  0  0
   -4.1642   -1.0265   -1.0818 H   0  0  0  0  0  0  0  0  0  0  0  0
    3.6113   -1.5482   -0.5242 C   0  0  0  0  0  0  0  0  0  0  0  0
    3.6568   -0.7337    0.2087 H   0  0  0  0  0  0  0  0  0  0  0  0
    4.6954   -2.4272   -0.6614 C   0  0  0  0  0  0  0  0  0  0  0  0
    5.5852   -2.2909   -0.0271 H   0  0  0  0  0  0  0  0  0  0  0  0
   -5.7831    1.9394   -1.6345 C   0  0  0  0  0  0  0  0  0  0  0  0
   -5.6080    2.9323   -2.0789 H   0  0  0  0  0  0  0  0  0  0  0  0
    3.5109   -3.6343   -2.3974 C   0  0  0  0  0  0  0  0  0  0  0  0
    3.4622   -4.4524   -3.1322 H   0  0  0  0  0  0  0  0  0  0  0  0
    4.6545   -3.4738   -1.5968 C   0  0  0  0  0  0  0  0  0  0  0  0
    5.5080   -4.1606   -1.7012 H   0  0  0  0  0  0  0  0  0  0  0  0
   -7.2450    0.3798   -0.4779 C   0  0  0  0  0  0  0  0  0  0  0  0
   -8.2178    0.1437   -0.0197 H   0  0  0  0  0  0  0  0  0  0  0  0
    3.9114    3.0792    0.8876 C   0  0  0  0  0  0  0  0  0  0  0  0
   -6.2180   -0.5801   -0.4890 C   0  0  0  0  0  0  0  0  0  0  0  0
   -6.3870   -1.5714   -0.0402 H   0  0  0  0  0  0  0  0  0  0  0  0
   -7.0264    1.6399   -1.0543 C   0  0  0  0  0  0  0  0  0  0  0  0
   -7.8255    2.3970   -1.0481 H   0  0  0  0  0  0  0  0  0  0  0  0
    4.2772    1.4860   -1.8079 C   0  0  0  0  0  0  0  0  0  0  0  0
    5.0498    0.8709   -1.3080 H   0  0  0  0  0  0  0  0  0  0  0  0
    4.7859    2.2872   -2.3829 H   0  0  0  0  0  0  0  0  0  0  0  0
    3.7473    0.8347   -2.5321 H   0  0  0  0  0  0  0  0  0  0  0  0
    1.8820    3.3691   -1.5636 C   0  0  0  0  0  0  0  0  0  0  0  0
    1.3182    2.7704   -2.3096 H   0  0  0  0  0  0  0  0  0  0  0  0
    2.4618    4.1392   -2.1126 H   0  0  0  0  0  0  0  0  0  0  0  0
    1.1458    3.8723   -0.9090 H   0  0  0  0  0  0  0  0  0  0  0  0
    2.8644    3.7786    1.7737 C   0  0  0  0  0  0  0  0  0  0  0  0
    2.3459    4.5966    1.2328 H   0  0  0  0  0  0  0  0  0  0  0  0
    3.3523    4.2278    2.6672 H   0  0  0  0  0  0  0  0  0  0  0  0
    2.0881    3.0698    2.1254 H   0  0  0  0  0  0  0  0  0  0  0  0
    4.9255    4.1106    0.3560 C   0  0  0  0  0  0  0  0  0  0  0  0
    5.7139    3.6384   -0.2660 H   0  0  0  0  0  0  0  0  0  0  0  0
    5.4353    4.6237    1.2015 H   0  0  0  0  0  0  0  0  0  0  0  0
    4.4360    4.8969   -0.2563 H   0  0  0  0  0  0  0  0  0  0  0  0
    4.6413    1.9969    1.7061 C   0  0  0  0  0  0  0  0  0  0  0  0
    3.9297    1.2473    2.1084 H   0  0  0  0  0  0  0  0  0  0  0  0
    5.1719    2.4561    2.5696 H   0  0  0  0  0  0  0  0  0  0  0  0
    5.4006    1.4564    1.1031 H   0  0  0  0  0  0  0  0  0  0  0  0
  2  3  1  0  0  0  0
  2 32  1  0  0  0  0
  5 17  2  0  0  0  0
  6  1  1  6  0  0  0
  7 10  1  1  0  0  0
  7  6  1  0  0  0  0
  7  3  1  0  0  0  0
  8 24  2  0  0  0  0
  8 18  1  0  0  0  0
  9 10  1  0  0  0  0
  9 20  1  0  0  0  0
 11 10  1  0  0  0  0
 12  9  2  0  0  0  0
 13 12  1  0  0  0  0
 14  8  1  0  0  0  0
 14  4  1  0  0  0  0
 15 14  1  0  0  0  0
 16 14  1  0  0  0  0
 17  4  1  0  0  0  0
 17  6  1  0  0  0  0
 18 33  2  0  0  0  0
 19 18  1  0  0  0  0
 20 21  1  0  0  0  0
 22 20  2  0  0  0  0
 22 23  1  0  0  0  0
 24 35  1  0  0  0  0
 25 24  1  0  0  0  0
 26 12  1  0  0  0  0
 26 28  2  0  0  0  0
 27 26  1  0  0  0  0
 28 22  1  0  0  0  0
 29 28  1  0  0  0  0
 30 31  1  0  0  0  0
 32 53  1  0  0  0  0
 32 45  1  0  0  0  0
 33 30  1  0  0  0  0
 33 34  1  0  0  0  0
 35 36  1  0  0  0  0
 35 30  2  0  0  0  0
 37 38  1  0  0  0  0
 37  2  1  0  0  0  0
 39 37  1  0  0  0  0
 40 37  1  0  0  0  0
 41 44  1  0  0  0  0
 41  2  1  0  0  0  0
 42 41  1  0  0  0  0
 43 41  1  0  0  0  0
 45 48  1  0  0  0  0
 45 47  1  0  0  0  0
 46 45  1  0  0  0  0
 49 32  1  0  0  0  0
 49 51  1  0  0  0  0
 50 49  1  0  0  0  0
 52 49  1  0  0  0  0
 53 54  1  0  0  0  0
 53 55  1  0  0  0  0
 56 53  1  0  0  0  0
M  END
