1
 OpenBabel05122313113D

 22 24  0  0  1  0  0  0  0  0999 V2000
   -1.2204   -1.2015   -1.2283 C   0  0  0  0  0  3  0  0  0  0  0  0
   -0.8163    0.0249   -1.8197 C   0  0  0  0  0  3  0  0  0  0  0  0
   -1.9988    0.8169   -2.3231 C   0  0  0  0  0  0  0  0  0  0  0  0
   -3.2267    0.0945   -1.7387 C   0  0  1  0  0  0  0  0  0  0  0  0
   -2.7382   -1.3088   -1.2172 C   0  0  2  0  0  0  0  0  0  0  0  0
   -2.8645    0.8088    0.6761 C   0  0  0  0  0  3  0  0  0  0  0  0
   -2.6203   -0.4879    1.1345 C   0  0  0  0  0  3  0  0  0  0  0  0
   -3.4005   -1.4186    0.1996 C   0  0  1  0  0  0  0  0  0  0  0  0
   -4.6781   -0.5562    0.0138 C   0  0  0  0  0  0  0  0  0  0  0  0
   -3.8825    0.6914   -0.4652 C   0  0  2  0  0  0  0  0  0  0  0  0
   -0.5736   -2.0896   -1.1529 H   0  0  0  0  0  0  0  0  0  0  0  0
    0.1873    0.1844   -2.2417 H   0  0  0  0  0  0  0  0  0  0  0  0
   -2.6691    1.7333    1.2373 H   0  0  0  0  0  0  0  0  0  0  0  0
   -2.0018    0.7752   -3.4343 H   0  0  0  0  0  0  0  0  0  0  0  0
   -1.9474    1.8909   -2.0490 H   0  0  0  0  0  0  0  0  0  0  0  0
   -4.0195   -0.0178   -2.5034 H   0  0  0  0  0  0  0  0  0  0  0  0
   -3.0668   -2.1455   -1.8680 H   0  0  0  0  0  0  0  0  0  0  0  0
   -2.2756   -0.7713    2.1399 H   0  0  0  0  0  0  0  0  0  0  0  0
   -3.5281   -2.4513    0.5704 H   0  0  0  0  0  0  0  0  0  0  0  0
   -5.3857   -0.9512   -0.7445 H   0  0  0  0  0  0  0  0  0  0  0  0
   -5.2194   -0.3885    0.9663 H   0  0  0  0  0  0  0  0  0  0  0  0
   -4.4579    1.6171   -0.6518 H   0  0  0  0  0  0  0  0  0  0  0  0
  1  5  1  0  0  0  0
  1 11  1  0  0  0  0
  2  1  1  0  0  0  0
  3 15  1  0  0  0  0
  3  2  1  0  0  0  0
  3  4  1  0  0  0  0
  4 16  1  6  0  0  0
  4  5  1  0  0  0  0
  4 10  1  0  0  0  0
  5 17  1  6  0  0  0
  5  8  1  0  0  0  0
  6  7  1  0  0  0  0
  6 13  1  0  0  0  0
  7 18  1  0  0  0  0
  8 19  1  1  0  0  0
  8  7  1  0  0  0  0
  9  8  1  0  0  0  0
  9 21  1  0  0  0  0
 10 22  1  6  0  0  0
 10  9  1  0  0  0  0
 10  6  1  0  0  0  0
 12  2  1  0  0  0  0
 14  3  1  0  0  0  0
 20  9  1  0  0  0  0
M  END
