5
 OpenBabel05122313113D

 18 18  0  0  1  0  0  0  0  0999 V2000
    2.8327   -0.0007   -0.7376 Cl  0  0  0  0  0  0  0  0  0  0  0  0
    1.4735   -0.0003    0.3614 C   0  0  1  0  0  3  0  0  0  0  0  0
    0.9339    1.2546    0.7958 C   0  0  0  0  0  0  0  0  0  0  0  0
   -0.1274    1.2343    1.7524 C   0  0  0  0  0  0  0  0  0  0  0  0
   -0.6646    0.0002    2.2035 C   0  0  0  0  0  3  0  0  0  0  0  0
   -0.1281   -1.2342    1.7523 C   0  0  0  0  0  0  0  0  0  0  0  0
    0.9331   -1.2551    0.7957 C   0  0  0  0  0  0  0  0  0  0  0  0
    1.5032    2.5587    0.3110 C   0  0  0  0  0  0  0  0  0  0  0  0
    1.5017   -2.5594    0.3108 C   0  0  0  0  0  0  0  0  0  0  0  0
   -0.5696    2.1842    2.0809 H   0  0  0  0  0  0  0  0  0  0  0  0
   -1.5236    0.0004    2.8892 H   0  0  0  0  0  0  0  0  0  0  0  0
   -0.5708   -2.1840    2.0806 H   0  0  0  0  0  0  0  0  0  0  0  0
    2.4751    2.7567    0.8094 H   0  0  0  0  0  0  0  0  0  0  0  0
    0.8152    3.3939    0.5377 H   0  0  0  0  0  0  0  0  0  0  0  0
    1.6903    2.5392   -0.7785 H   0  0  0  0  0  0  0  0  0  0  0  0
    2.4733   -2.7582    0.8095 H   0  0  0  0  0  0  0  0  0  0  0  0
    1.6891   -2.5398   -0.7787 H   0  0  0  0  0  0  0  0  0  0  0  0
    0.8130   -3.3942    0.5371 H   0  0  0  0  0  0  0  0  0  0  0  0
  2  1  1  6  0  0  0
  2  7  1  0  0  0  0
  2  3  1  0  0  0  0
  3  4  2  0  0  0  0
  4 10  1  0  0  0  0
  4  5  1  0  0  0  0
  5 11  1  0  0  0  0
  6 12  1  0  0  0  0
  6  5  1  0  0  0  0
  7  6  2  0  0  0  0
  8 14  1  0  0  0  0
  8  3  1  0  0  0  0
  8 13  1  0  0  0  0
  9 18  1  0  0  0  0
  9  7  1  0  0  0  0
  9 16  1  0  0  0  0
 15  8  1  0  0  0  0
 17  9  1  0  0  0  0
M  END
