6
 OpenBabel05122313113D

 48 52  0  0  1  0  0  0  0  0999 V2000
    0.2229   -1.4982   -2.7116 O   0  0  0  0  0  0  0  0  0  0  0  0
    0.0749   -1.7567    0.6251 O   0  0  0  0  0  0  0  0  0  0  0  0
    2.8105   -1.0537    1.1804 O   0  0  0  0  0  0  0  0  0  0  0  0
    2.5017    1.7922    0.7098 O   0  0  0  0  0  0  0  0  0  0  0  0
   -0.3499    2.4260   -0.0558 O   0  0  0  0  0  0  0  0  0  0  0  0
   -0.3841    0.3634   -1.3200 C   0  0  0  0  0  3  0  0  0  0  0  0
   -0.8169    0.7609   -2.2584 H   0  0  0  0  0  0  0  0  0  0  0  0
    0.2868   -0.9425   -1.6215 C   0  0  0  0  0  0  0  0  0  0  0  0
    1.0629   -1.5509   -0.4239 C   0  0  1  0  0  0  0  0  0  0  0  0
    2.1201   -0.5116    0.0427 C   0  0  1  0  0  0  0  0  0  0  0  0
    1.4420    0.8387    0.4760 C   0  0  2  0  0  0  0  0  0  0  0  0
    0.5174    1.4258   -0.6545 C   0  0  2  0  0  0  0  0  0  0  0  0
    1.6213   -2.9439   -0.7426 C   0  0  0  0  0  0  0  0  0  0  0  0
    1.8518   -3.0418   -1.8189 H   0  0  0  0  0  0  0  0  0  0  0  0
    2.5322   -3.1182   -0.1399 H   0  0  0  0  0  0  0  0  0  0  0  0
    0.4992   -3.8813   -0.2806 C   0  0  0  0  0  0  0  0  0  0  0  0
   -0.2970   -3.9382   -1.0507 H   0  0  0  0  0  0  0  0  0  0  0  0
    0.8490   -4.9097   -0.0648 H   0  0  0  0  0  0  0  0  0  0  0  0
   -0.0069   -3.1505    0.9585 C   0  0  0  0  0  0  0  0  0  0  0  0
   -1.0598   -3.3720    1.2267 H   0  0  0  0  0  0  0  0  0  0  0  0
    0.6388   -3.3571    1.8429 H   0  0  0  0  0  0  0  0  0  0  0  0
    3.2108   -0.3021   -1.0518 C   0  0  0  0  0  0  0  0  0  0  0  0
    2.8818   -0.6523   -2.0489 H   0  0  0  0  0  0  0  0  0  0  0  0
    3.4544    0.7711   -1.1237 H   0  0  0  0  0  0  0  0  0  0  0  0
    4.4331   -1.0642   -0.5182 C   0  0  0  0  0  0  0  0  0  0  0  0
    4.4217   -2.1249   -0.8393 H   0  0  0  0  0  0  0  0  0  0  0  0
    5.3912   -0.6200   -0.8523 H   0  0  0  0  0  0  0  0  0  0  0  0
    4.2231   -0.9583    0.9908 C   0  0  0  0  0  0  0  0  0  0  0  0
    4.6987   -1.7741    1.5727 H   0  0  0  0  0  0  0  0  0  0  0  0
    4.6032    0.0169    1.3771 H   0  0  0  0  0  0  0  0  0  0  0  0
    0.7117    0.7223    1.8449 C   0  0  0  0  0  0  0  0  0  0  0  0
   -0.3852    0.6502    1.7416 H   0  0  0  0  0  0  0  0  0  0  0  0
    1.0628   -0.1883    2.3594 H   0  0  0  0  0  0  0  0  0  0  0  0
    1.1396    1.9797    2.6061 C   0  0  0  0  0  0  0  0  0  0  0  0
    0.5047    2.8388    2.3142 H   0  0  0  0  0  0  0  0  0  0  0  0
    1.0918    1.8553    3.7058 H   0  0  0  0  0  0  0  0  0  0  0  0
    2.5580    2.1687    2.0876 C   0  0  0  0  0  0  0  0  0  0  0  0
    2.9287    3.2133    2.1373 H   0  0  0  0  0  0  0  0  0  0  0  0
    3.2777    1.5157    2.6371 H   0  0  0  0  0  0  0  0  0  0  0  0
    1.2976    2.1971   -1.7569 C   0  0  0  0  0  0  0  0  0  0  0  0
    1.5136    1.5644   -2.6382 H   0  0  0  0  0  0  0  0  0  0  0  0
    2.2514    2.5602   -1.3319 H   0  0  0  0  0  0  0  0  0  0  0  0
    0.3847    3.3887   -2.0637 C   0  0  0  0  0  0  0  0  0  0  0  0
    0.9222    4.2393   -2.5267 H   0  0  0  0  0  0  0  0  0  0  0  0
   -0.4444    3.0985   -2.7423 H   0  0  0  0  0  0  0  0  0  0  0  0
   -0.1540    3.7006   -0.6712 C   0  0  0  0  0  0  0  0  0  0  0  0
    0.5796    4.3055   -0.0861 H   0  0  0  0  0  0  0  0  0  0  0  0
   -1.1253    4.2358   -0.6686 H   0  0  0  0  0  0  0  0  0  0  0  0
  1  8  2  0  0  0  0
  2 19  1  0  0  0  0
  4 37  1  0  0  0  0
  7  6  1  0  0  0  0
  8  6  1  0  0  0  0
  9  8  1  6  0  0  0
  9 10  1  0  0  0  0
  9  2  1  0  0  0  0
 10 11  1  0  0  0  0
 10  3  1  1  0  0  0
 11  4  1  1  0  0  0
 11 31  1  0  0  0  0
 12  6  1  6  0  0  0
 12  5  1  0  0  0  0
 12 11  1  0  0  0  0
 13  9  1  0  0  0  0
 13 16  1  0  0  0  0
 13 15  1  0  0  0  0
 14 13  1  0  0  0  0
 16 18  1  0  0  0  0
 16 19  1  0  0  0  0
 17 16  1  0  0  0  0
 19 20  1  0  0  0  0
 19 21  1  0  0  0  0
 22 25  1  0  0  0  0
 22 10  1  0  0  0  0
 23 22  1  0  0  0  0
 24 22  1  0  0  0  0
 25 28  1  0  0  0  0
 26 25  1  0  0  0  0
 27 25  1  0  0  0  0
 28  3  1  0  0  0  0
 28 30  1  0  0  0  0
 28 29  1  0  0  0  0
 31 33  1  0  0  0  0
 31 34  1  0  0  0  0
 32 31  1  0  0  0  0
 34 36  1  0  0  0  0
 35 34  1  0  0  0  0
 37 38  1  0  0  0  0
 37 34  1  0  0  0  0
 37 39  1  0  0  0  0
 40 42  1  0  0  0  0
 40 12  1  0  0  0  0
 41 40  1  0  0  0  0
 43 40  1  0  0  0  0
 43 46  1  0  0  0  0
 44 43  1  0  0  0  0
 45 43  1  0  0  0  0
 46 48  1  0  0  0  0
 46 47  1  0  0  0  0
 46  5  1  0  0  0  0
M  END
