5
 OpenBabel05122313113D

 27 26  0  0  0  0  0  0  0  0999 V2000
    4.1104   -0.6880   -0.1385 N   0  0  0  0  0  0  0  0  0  0  0  0
    5.0797   -0.3787   -0.0346 H   0  0  0  0  0  0  0  0  0  0  0  0
    3.4634    1.5412    0.1108 N   0  0  0  0  0  0  0  0  0  0  0  0
    4.4402    1.8015   -0.0464 H   0  0  0  0  0  0  0  0  0  0  0  0
    0.5211   -0.2167    0.0505 C   0  0  0  0  0  3  0  0  0  0  0  0
    1.7787   -0.1461    0.0456 C   0  0  0  0  0  0  0  0  0  0  0  0
    3.1176    0.2301    0.0084 C   0  0  0  0  0  3  0  0  0  0  0  0
    4.9230   -2.8132   -1.0289 C   0  0  0  0  0  0  0  0  0  0  0  0
    4.9042   -2.4046   -2.0583 H   0  0  0  0  0  0  0  0  0  0  0  0
    4.7327   -3.9024   -1.0848 H   0  0  0  0  0  0  0  0  0  0  0  0
    5.9464   -2.6792   -0.6160 H   0  0  0  0  0  0  0  0  0  0  0  0
    3.8427   -2.7006    1.2819 C   0  0  0  0  0  0  0  0  0  0  0  0
    3.0561   -2.1985    1.8785 H   0  0  0  0  0  0  0  0  0  0  0  0
    4.8198   -2.5610    1.7904 H   0  0  0  0  0  0  0  0  0  0  0  0
    3.6186   -3.7858    1.2647 H   0  0  0  0  0  0  0  0  0  0  0  0
    3.8765   -2.1372   -0.1432 C   0  0  0  0  0  0  0  0  0  0  0  0
    2.8703   -2.2680   -0.5944 H   0  0  0  0  0  0  0  0  0  0  0  0
    2.4908    2.6416    0.1982 C   0  0  0  0  0  0  0  0  0  0  0  0
    1.6614    2.2609    0.8290 H   0  0  0  0  0  0  0  0  0  0  0  0
    1.9129    3.0054   -1.1737 C   0  0  0  0  0  0  0  0  0  0  0  0
    1.4393    2.1221   -1.6443 H   0  0  0  0  0  0  0  0  0  0  0  0
    2.7008    3.3967   -1.8506 H   0  0  0  0  0  0  0  0  0  0  0  0
    1.1316    3.7824   -1.0592 H   0  0  0  0  0  0  0  0  0  0  0  0
    3.1498    3.8286    0.8995 C   0  0  0  0  0  0  0  0  0  0  0  0
    3.5329    3.5466    1.9003 H   0  0  0  0  0  0  0  0  0  0  0  0
    2.4152    4.6463    1.0296 H   0  0  0  0  0  0  0  0  0  0  0  0
    3.9929    4.2350    0.2997 H   0  0  0  0  0  0  0  0  0  0  0  0
  1  2  1  0  0  0  0
  1  7  1  0  0  0  0
  3 18  1  0  0  0  0
  4  3  1  0  0  0  0
  6  5  3  0  0  0  0
  7  6  1  0  0  0  0
  7  3  1  0  0  0  0
  8 11  1  0  0  0  0
  8 16  1  0  0  0  0
  9  8  1  0  0  0  0
 10  8  1  0  0  0  0
 12 14  1  0  0  0  0
 12 13  1  0  0  0  0
 15 12  1  0  0  0  0
 16  1  1  0  0  0  0
 16 12  1  0  0  0  0
 17 16  1  0  0  0  0
 18 19  1  0  0  0  0
 18 24  1  0  0  0  0
 20 23  1  0  0  0  0
 20 18  1  0  0  0  0
 21 20  1  0  0  0  0
 22 20  1  0  0  0  0
 24 26  1  0  0  0  0
 24 25  1  0  0  0  0
 27 24  1  0  0  0  0
M  END
