3
 OpenBabel05122313113D

 39 41  0  0  0  0  0  0  0  0999 V2000
    2.5394   -3.6450   -1.2062 N   0  0  0  0  0  0  0  0  0  0  0  0
    3.5831   -1.7908   -1.5654 N   0  0  0  0  0  0  0  0  0  0  0  0
    2.6923   -2.3807   -0.7193 C   0  0  0  0  0  2  0  0  0  0  0  0
    3.3082   -3.8420   -2.3424 C   0  0  0  0  0  0  0  0  0  0  0  0
    3.3164   -4.7870   -2.8937 H   0  0  0  0  0  0  0  0  0  0  0  0
    3.9756   -2.6644   -2.5686 C   0  0  0  0  0  0  0  0  0  0  0  0
    4.6864   -2.3836   -3.3516 H   0  0  0  0  0  0  0  0  0  0  0  0
    1.5026   -4.5712   -0.7055 C   0  0  0  0  0  0  0  0  0  0  0  0
    1.6602   -4.7093    0.3853 H   0  0  0  0  0  0  0  0  0  0  0  0
    1.6687   -5.5569   -1.1863 H   0  0  0  0  0  0  0  0  0  0  0  0
    0.1795   -4.0259   -0.9952 C   0  0  0  0  0  0  0  0  0  0  0  0
   -0.8220   -3.3852   -1.3042 C   0  0  0  0  0  0  0  0  0  0  0  0
   -1.9152   -2.5408   -1.6665 C   0  0  0  0  0  0  0  0  0  0  0  0
   -1.6479   -1.1789   -1.9635 C   0  0  0  0  0  0  0  0  0  0  0  0
   -0.6146   -0.8063   -1.9045 H   0  0  0  0  0  0  0  0  0  0  0  0
   -2.6905   -0.3223   -2.3317 C   0  0  0  0  0  0  0  0  0  0  0  0
   -2.4694    0.7325   -2.5546 H   0  0  0  0  0  0  0  0  0  0  0  0
   -4.0072   -0.8061   -2.4066 C   0  0  0  0  0  0  0  0  0  0  0  0
   -4.8274   -0.1309   -2.6905 H   0  0  0  0  0  0  0  0  0  0  0  0
   -4.2809   -2.1498   -2.1026 C   0  0  0  0  0  0  0  0  0  0  0  0
   -5.3142   -2.5240   -2.1526 H   0  0  0  0  0  0  0  0  0  0  0  0
   -3.2465   -3.0179   -1.7343 C   0  0  0  0  0  0  0  0  0  0  0  0
   -3.4560   -4.0715   -1.5001 H   0  0  0  0  0  0  0  0  0  0  0  0
    3.9676   -0.3658   -1.4780 C   0  0  0  0  0  0  0  0  0  0  0  0
    4.6865   -0.1703   -2.2992 H   0  0  0  0  0  0  0  0  0  0  0  0
    4.5142   -0.2099   -0.5228 H   0  0  0  0  0  0  0  0  0  0  0  0
    2.8099    0.5173   -1.5505 C   0  0  0  0  0  0  0  0  0  0  0  0
    1.7968    1.2104   -1.5403 C   0  0  0  0  0  0  0  0  0  0  0  0
    0.6047    1.9902   -1.4420 C   0  0  0  0  0  0  0  0  0  0  0  0
   -0.2393    1.8265   -0.3144 C   0  0  0  0  0  0  0  0  0  0  0  0
    0.0367    1.0909    0.4528 H   0  0  0  0  0  0  0  0  0  0  0  0
   -1.3973    2.5984   -0.1811 C   0  0  0  0  0  0  0  0  0  0  0  0
   -2.0372    2.4634    0.7038 H   0  0  0  0  0  0  0  0  0  0  0  0
   -1.7367    3.5389   -1.1690 C   0  0  0  0  0  0  0  0  0  0  0  0
   -2.6457    4.1500   -1.0608 H   0  0  0  0  0  0  0  0  0  0  0  0
   -0.9110    3.7014   -2.2944 C   0  0  0  0  0  0  0  0  0  0  0  0
   -1.1726    4.4391   -3.0675 H   0  0  0  0  0  0  0  0  0  0  0  0
    0.2534    2.9361   -2.4351 C   0  0  0  0  0  0  0  0  0  0  0  0
    0.9093    3.0713   -3.3065 H   0  0  0  0  0  0  0  0  0  0  0  0
  1  3  1  0  0  0  0
  1  8  1  0  0  0  0
  2 24  1  0  0  0  0
  2  3  1  0  0  0  0
  4  1  1  0  0  0  0
  5  4  1  0  0  0  0
  6  4  2  0  0  0  0
  6  2  1  0  0  0  0
  7  6  1  0  0  0  0
  8  9  1  0  0  0  0
 10  8  1  0  0  0  0
 11  8  1  0  0  0  0
 12 11  3  0  0  0  0
 13 12  1  0  0  0  0
 14 15  1  0  0  0  0
 14 13  2  0  0  0  0
 16 14  1  0  0  0  0
 17 16  1  0  0  0  0
 18 16  2  0  0  0  0
 18 20  1  0  0  0  0
 19 18  1  0  0  0  0
 20 22  2  0  0  0  0
 21 20  1  0  0  0  0
 22 13  1  0  0  0  0
 22 23  1  0  0  0  0
 24 26  1  0  0  0  0
 25 24  1  0  0  0  0
 27 28  3  0  0  0  0
 27 24  1  0  0  0  0
 28 29  1  0  0  0  0
 29 30  1  0  0  0  0
 30 32  2  0  0  0  0
 30 31  1  0  0  0  0
 32 33  1  0  0  0  0
 34 35  1  0  0  0  0
 34 32  1  0  0  0  0
 36 34  2  0  0  0  0
 37 36  1  0  0  0  0
 38 36  1  0  0  0  0
 38 29  2  0  0  0  0
 39 38  1  0  0  0  0
M  END
