16
 OpenBabel05122313113D

 39 40  0  0  1  0  0  0  0  0999 V2000
    2.7492    0.0718    0.4183 C   0  0  1  0  0  0  0  0  0  0  0  0
    2.9214   -1.3253    0.0675 O   0  0  0  0  0  0  0  0  0  0  0  0
    4.2722   -1.5110   -0.1424 C   0  0  0  0  0  0  0  0  0  0  0  0
    4.9490   -0.1553    0.0930 C   0  0  2  0  0  0  0  0  0  0  0  0
    4.8116    0.0448    1.6389 C   0  0  0  0  0  0  0  0  0  0  0  0
    3.2857    0.2268    1.8547 C   0  0  0  0  0  0  0  0  0  0  0  0
    3.8314    0.7908   -0.4677 C   0  0  0  0  0  0  0  0  0  0  0  0
    3.5697    0.6153   -1.9692 C   0  0  0  0  0  0  0  0  0  0  0  0
    4.0176    2.2775   -0.1589 C   0  0  0  0  0  0  0  0  0  0  0  0
    6.3536   -0.0609   -0.4641 C   0  0  0  0  0  0  0  0  0  0  0  0
    4.7520   -2.5827   -0.4194 O   0  0  0  0  0  0  0  0  0  0  0  0
    1.3340    0.5495    0.1869 C   0  0  0  0  0  0  0  0  0  0  0  0
    0.9184    1.5983    0.6507 O   0  0  0  0  0  0  0  0  0  0  0  0
    0.6378   -0.2667   -0.6306 O   0  0  0  0  0  0  0  0  0  0  0  0
   -0.7170    0.1437   -0.9447 C   0  0  0  0  0  0  0  0  0  0  0  0
   -1.6846   -0.4538    0.0445 C   0  0  1  0  0  3  0  0  0  0  0  0
   -2.0267    0.1943    1.2833 C   0  0  0  0  0  3  0  0  0  0  0  0
   -2.3999   -1.6553   -0.2577 C   0  0  0  0  0  3  0  0  0  0  0  0
   -3.4006   -2.0838    0.6700 C   0  0  0  0  0  3  0  0  0  0  0  0
    5.2289   -0.8217    2.1878 H   0  0  0  0  0  0  0  0  0  0  0  0
    5.3894    0.9372    1.9511 H   0  0  0  0  0  0  0  0  0  0  0  0
    2.8377   -0.5516    2.5006 H   0  0  0  0  0  0  0  0  0  0  0  0
    3.0105    1.2160    2.2646 H   0  0  0  0  0  0  0  0  0  0  0  0
    3.3345   -0.4302   -2.2449 H   0  0  0  0  0  0  0  0  0  0  0  0
    2.7189    1.2493   -2.2909 H   0  0  0  0  0  0  0  0  0  0  0  0
    4.4560    0.9361   -2.5520 H   0  0  0  0  0  0  0  0  0  0  0  0
    4.2938    2.4822    0.8916 H   0  0  0  0  0  0  0  0  0  0  0  0
    4.8151    2.6965   -0.8049 H   0  0  0  0  0  0  0  0  0  0  0  0
    3.0822    2.8329   -0.3690 H   0  0  0  0  0  0  0  0  0  0  0  0
    6.8097    0.9223   -0.2324 H   0  0  0  0  0  0  0  0  0  0  0  0
    6.9908   -0.8545   -0.0263 H   0  0  0  0  0  0  0  0  0  0  0  0
    6.3632   -0.2048   -1.5623 H   0  0  0  0  0  0  0  0  0  0  0  0
   -0.7709    1.2493   -0.9314 H   0  0  0  0  0  0  0  0  0  0  0  0
   -0.9048   -0.2361   -1.9664 H   0  0  0  0  0  0  0  0  0  0  0  0
   -2.1631   -0.4009    2.1994 H   0  0  0  0  0  0  0  0  0  0  0  0
   -1.6203    1.2037    1.4480 H   0  0  0  0  0  0  0  0  0  0  0  0
   -2.2763   -2.1276   -1.2457 H   0  0  0  0  0  0  0  0  0  0  0  0
   -3.1996   -2.0685    1.7522 H   0  0  0  0  0  0  0  0  0  0  0  0
   -4.1021   -2.8682    0.3472 H   0  0  0  0  0  0  0  0  0  0  0  0
  1 12  1  6  0  0  0
  1  6  1  0  0  0  0
  2  1  1  0  0  0  0
  3  2  1  0  0  0  0
  3  4  1  0  0  0  0
  4 10  1  6  0  0  0
  4  5  1  0  0  0  0
  5  6  1  0  0  0  0
  5 21  1  0  0  0  0
  5 20  1  0  0  0  0
  6 23  1  0  0  0  0
  6 22  1  0  0  0  0
  7  9  1  0  0  0  0
  7  4  1  0  0  0  0
  7  1  1  0  0  0  0
  8  7  1  0  0  0  0
  9 27  1  0  0  0  0
 10 30  1  0  0  0  0
 10 31  1  0  0  0  0
 11  3  2  0  0  0  0
 12 13  2  0  0  0  0
 14 12  1  0  0  0  0
 15 33  1  0  0  0  0
 15 14  1  0  0  0  0
 15 16  1  0  0  0  0
 16 18  1  6  0  0  0
 16 17  1  0  0  0  0
 17 36  1  0  0  0  0
 17 35  1  0  0  0  0
 18 19  1  0  0  0  0
 19 38  1  0  0  0  0
 24  8  1  0  0  0  0
 25  8  1  0  0  0  0
 26  8  1  0  0  0  0
 28  9  1  0  0  0  0
 29  9  1  0  0  0  0
 32 10  1  0  0  0  0
 34 15  1  0  0  0  0
 37 18  1  0  0  0  0
 39 19  1  0  0  0  0
M  END
