46
 OpenBabel05122313113D

 51 51  0  0  0  0  0  0  0  0999 V2000
   -6.8168    2.2488   -1.3083 C   0  0  0  0  0  0  0  0  0  0  0  0
   -6.5926    3.3356   -1.2928 H   0  0  0  0  0  0  0  0  0  0  0  0
   -5.8978    1.7085   -1.0016 H   0  0  0  0  0  0  0  0  0  0  0  0
   -7.0447    1.9626   -2.3554 H   0  0  0  0  0  0  0  0  0  0  0  0
   -7.8571    2.2773    1.6145 C   0  0  0  0  0  0  0  0  0  0  0  0
   -7.6776    3.3670    1.7235 H   0  0  0  0  0  0  0  0  0  0  0  0
   -8.6912    2.0014    2.2919 H   0  0  0  0  0  0  0  0  0  0  0  0
   -6.9462    1.7500    1.9651 H   0  0  0  0  0  0  0  0  0  0  0  0
   -9.8128    2.7609   -0.7376 C   0  0  0  0  0  0  0  0  0  0  0  0
   -9.6573    3.8591   -0.7074 H   0  0  0  0  0  0  0  0  0  0  0  0
  -10.0817    2.4809   -1.7765 H   0  0  0  0  0  0  0  0  0  0  0  0
  -10.6775    2.5188   -0.0866 H   0  0  0  0  0  0  0  0  0  0  0  0
   -8.6555   -1.4862    2.0808 C   0  0  0  0  0  0  0  0  0  0  0  0
   -8.0655   -0.7598    2.6759 H   0  0  0  0  0  0  0  0  0  0  0  0
   -8.4344   -2.5028    2.4674 H   0  0  0  0  0  0  0  0  0  0  0  0
   -9.7297   -1.2789    2.2638 H   0  0  0  0  0  0  0  0  0  0  0  0
   -9.3272   -2.5404   -0.7584 C   0  0  0  0  0  0  0  0  0  0  0  0
  -10.4017   -2.2967   -0.6328 H   0  0  0  0  0  0  0  0  0  0  0  0
   -9.1737   -3.5911   -0.4369 H   0  0  0  0  0  0  0  0  0  0  0  0
   -9.0895   -2.4732   -1.8396 H   0  0  0  0  0  0  0  0  0  0  0  0
   -6.4225   -1.7292   -0.0771 C   0  0  0  0  0  0  0  0  0  0  0  0
   -6.2670   -2.8280    0.0198 H   0  0  0  0  0  0  0  0  0  0  0  0
   -6.2414   -1.4937   -1.1499 H   0  0  0  0  0  0  0  0  0  0  0  0
   -5.4286   -0.9804    0.8234 C   0  0  0  0  0  0  0  0  0  0  0  0
   -5.6088   -1.2635    1.8826 H   0  0  0  0  0  0  0  0  0  0  0  0
   -5.6264    0.1139    0.7741 H   0  0  0  0  0  0  0  0  0  0  0  0
   -3.9468   -1.2208    0.4996 C   0  0  0  0  0  0  0  0  0  0  0  0
   -3.7294   -2.3121    0.5503 H   0  0  0  0  0  0  0  0  0  0  0  0
   -3.3167   -0.7439    1.2796 H   0  0  0  0  0  0  0  0  0  0  0  0
   -3.5120   -0.6842   -0.8678 C   0  0  0  0  0  0  0  0  0  0  0  0
   -3.7598    0.3972   -0.9471 H   0  0  0  0  0  0  0  0  0  0  0  0
   -4.0703   -1.1909   -1.6833 H   0  0  0  0  0  0  0  0  0  0  0  0
   -2.0310   -0.8633   -1.1543 C   0  0  0  0  0  0  0  0  0  0  0  0
   -1.7770   -0.5167   -2.1818 H   0  0  0  0  0  0  0  0  0  0  0  0
   -1.7402   -1.9366   -1.0734 H   0  0  0  0  0  0  0  0  0  0  0  0
    0.0568   -0.1195   -0.2225 C   0  0  0  0  0  0  0  0  0  0  0  0
    0.7110    0.6585    0.7635 C   0  0  0  0  0  0  0  0  0  0  0  0
    0.0928    1.2228    1.4760 H   0  0  0  0  0  0  0  0  0  0  0  0
    2.0996    0.7040    0.8247 C   0  0  0  0  0  0  0  0  0  0  0  0
    2.6096    1.3066    1.5892 H   0  0  0  0  0  0  0  0  0  0  0  0
    2.8688   -0.0341   -0.1074 C   0  0  0  0  0  0  0  0  0  0  0  0
    2.2244   -0.8103   -1.0925 C   0  0  0  0  0  0  0  0  0  0  0  0
    2.8302   -1.3790   -1.8119 H   0  0  0  0  0  0  0  0  0  0  0  0
    0.8279   -0.8544   -1.1523 C   0  0  0  0  0  0  0  0  0  0  0  0
    0.3476   -1.4643   -1.9278 H   0  0  0  0  0  0  0  0  0  0  0  0
    5.4248    0.0419   -0.0021 C   0  0  0  0  0  1  0  0  0  0  0  0
    4.2413    0.0064   -0.0516 N   0  0  0  0  0  2  0  0  0  0  0  0
   -8.6084    0.1950   -0.3012 O   0  0  0  0  0  0  0  0  0  0  0  0
   -1.2925   -0.0955   -0.1960 O   0  0  0  0  0  0  0  0  0  0  0  0
   -8.2718    1.8379   -0.1760 Si  0  0  0  0  0  0  0  0  0  0  0  0
   -8.2577   -1.3572    0.2399 Si  0  0  0  0  0  0  0  0  0  0  0  0
  1  2  1  0  0  0  0
  1  3  1  0  0  0  0
  1 50  1  0  0  0  0
  4  1  1  0  0  0  0
  5  6  1  0  0  0  0
  5  8  1  0  0  0  0
  5  7  1  0  0  0  0
  9 10  1  0  0  0  0
  9 50  1  0  0  0  0
  9 12  1  0  0  0  0
 11  9  1  0  0  0  0
 13 16  1  0  0  0  0
 13 15  1  0  0  0  0
 13 14  1  0  0  0  0
 17 18  1  0  0  0  0
 17 19  1  0  0  0  0
 17 51  1  0  0  0  0
 20 17  1  0  0  0  0
 21 22  1  0  0  0  0
 21 51  1  0  0  0  0
 21 24  1  0  0  0  0
 23 21  1  0  0  0  0
 24 25  1  0  0  0  0
 26 24  1  0  0  0  0
 27 28  1  0  0  0  0
 27 24  1  0  0  0  0
 27 29  1  0  0  0  0
 30 27  1  0  0  0  0
 31 30  1  0  0  0  0
 32 30  1  0  0  0  0
 33 35  1  0  0  0  0
 33 30  1  0  0  0  0
 33 49  1  0  0  0  0
 34 33  1  0  0  0  0
 36 49  1  0  0  0  0
 36 37  1  0  0  0  0
 37 39  2  0  0  0  0
 37 38  1  0  0  0  0
 39 40  1  0  0  0  0
 41 47  1  0  0  0  0
 41 39  1  0  0  0  0
 42 41  2  0  0  0  0
 43 42  1  0  0  0  0
 44 42  1  0  0  0  0
 44 36  2  0  0  0  0
 45 44  1  0  0  0  0
 47 46  1  0  0  0  0
 48 50  1  0  0  0  0
 48 51  1  0  0  0  0
 50  5  1  0  0  0  0
 51 13  1  0  0  0  0
M  END
