1
 OpenBabel05122313113D

 37 40  0  0  0  0  0  0  0  0999 V2000
    1.2187   -1.1861    0.5872 C   0  0  0  0  0  2  0  0  0  0  0  0
   -0.1065   -1.3411    0.2788 N   0  0  0  0  0  0  0  0  0  0  0  0
    2.6751   -2.1062    2.3980 C   0  0  0  0  0  0  0  0  0  0  0  0
    2.9938   -3.1671    2.4071 H   0  0  0  0  0  0  0  0  0  0  0  0
    2.5859   -1.7396    3.4397 H   0  0  0  0  0  0  0  0  0  0  0  0
    3.4301   -1.5018    1.8618 H   0  0  0  0  0  0  0  0  0  0  0  0
   -0.7348   -2.1865    1.1816 C   0  0  0  0  0  0  0  0  0  0  0  0
   -1.8016   -2.4202    1.1162 H   0  0  0  0  0  0  0  0  0  0  0  0
   -1.9197    1.3349    0.1200 C   0  0  0  0  0  0  0  0  0  0  0  0
   -3.3050   -0.5697   -0.6356 C   0  0  0  0  0  0  0  0  0  0  0  0
   -2.0307    0.0404   -0.4625 C   0  0  0  0  0  0  0  0  0  0  0  0
   -0.7722   -0.6952   -0.8633 C   0  0  0  0  0  0  0  0  0  0  0  0
   -0.9792   -1.4675   -1.6274 H   0  0  0  0  0  0  0  0  0  0  0  0
   -0.0171   -0.0171   -1.3050 H   0  0  0  0  0  0  0  0  0  0  0  0
   -3.0118    3.3520    1.0951 C   0  0  0  0  0  0  0  0  0  0  0  0
   -3.9362    3.8756    1.3843 H   0  0  0  0  0  0  0  0  0  0  0  0
   -1.7780    3.9408    1.2857 C   0  0  0  0  0  0  0  0  0  0  0  0
   -1.7040    4.9445    1.7304 H   0  0  0  0  0  0  0  0  0  0  0  0
    0.2236   -2.5825    2.0778 C   0  0  0  0  0  0  0  0  0  0  0  0
    0.1599   -3.2421    2.9482 H   0  0  0  0  0  0  0  0  0  0  0  0
   -0.5924    3.2460    0.9030 C   0  0  0  0  0  0  0  0  0  0  0  0
    0.3907    3.7166    1.0539 H   0  0  0  0  0  0  0  0  0  0  0  0
    1.4073   -1.9637    1.6992 N   0  0  0  0  0  0  0  0  0  0  0  0
   -0.6593    1.9854    0.3397 C   0  0  0  0  0  0  0  0  0  0  0  0
    0.2818    1.4837    0.0674 H   0  0  0  0  0  0  0  0  0  0  0  0
   -4.7442   -2.4446   -1.3253 C   0  0  0  0  0  0  0  0  0  0  0  0
   -4.8454   -3.4560   -1.7472 H   0  0  0  0  0  0  0  0  0  0  0  0
   -3.4874   -1.8874   -1.1801 C   0  0  0  0  0  0  0  0  0  0  0  0
   -2.6130   -2.4763   -1.4910 H   0  0  0  0  0  0  0  0  0  0  0  0
   -5.9121   -1.7224   -0.9389 C   0  0  0  0  0  0  0  0  0  0  0  0
   -6.9050   -2.1790   -1.0650 H   0  0  0  0  0  0  0  0  0  0  0  0
   -4.3774    1.4388    0.3239 C   0  0  0  0  0  0  0  0  0  0  0  0
   -5.2876    1.9817    0.6247 H   0  0  0  0  0  0  0  0  0  0  0  0
   -3.1240    2.0460    0.5161 C   0  0  0  0  0  0  0  0  0  0  0  0
   -4.5021    0.1552   -0.2346 C   0  0  0  0  0  0  0  0  0  0  0  0
   -5.7874   -0.4548   -0.4083 C   0  0  0  0  0  0  0  0  0  0  0  0
   -6.6784    0.1155   -0.1026 H   0  0  0  0  0  0  0  0  0  0  0  0
  1 23  1  0  0  0  0
  2  1  1  0  0  0  0
  2  7  1  0  0  0  0
  3  4  1  0  0  0  0
  3  5  1  0  0  0  0
  6  3  1  0  0  0  0
  7 19  2  0  0  0  0
  8  7  1  0  0  0  0
  9 24  2  0  0  0  0
  9 34  1  0  0  0  0
 10 11  2  0  0  0  0
 10 35  1  0  0  0  0
 11  9  1  0  0  0  0
 12 11  1  0  0  0  0
 12  2  1  0  0  0  0
 13 12  1  0  0  0  0
 14 12  1  0  0  0  0
 15 17  1  0  0  0  0
 15 16  1  0  0  0  0
 17 18  1  0  0  0  0
 19 20  1  0  0  0  0
 21 22  1  0  0  0  0
 21 17  2  0  0  0  0
 23 19  1  0  0  0  0
 23  3  1  0  0  0  0
 24 21  1  0  0  0  0
 25 24  1  0  0  0  0
 26 28  2  0  0  0  0
 26 30  1  0  0  0  0
 27 26  1  0  0  0  0
 28 10  1  0  0  0  0
 29 28  1  0  0  0  0
 30 36  2  0  0  0  0
 31 30  1  0  0  0  0
 32 34  1  0  0  0  0
 32 33  1  0  0  0  0
 34 15  2  0  0  0  0
 35 32  2  0  0  0  0
 36 35  1  0  0  0  0
 36 37  1  0  0  0  0
M  END
