2
 OpenBabel05122313113D

 36 37  0  0  0  0  0  0  0  0999 V2000
   -1.9562   -0.2257    0.3107 N   0  0  0  0  0  2  0  0  0  0  0  0
   -1.0097    0.2774   -0.3780 C   0  0  0  0  0  2  0  0  0  0  0  0
   -2.0478   -1.3226    1.1622 C   0  0  0  0  0  0  0  0  0  0  0  0
   -2.8490   -2.4129    0.7130 C   0  0  0  0  0  0  0  0  0  0  0  0
   -3.0353   -3.5052    1.5749 C   0  0  0  0  0  0  0  0  0  0  0  0
   -3.6406   -4.3562    1.2245 H   0  0  0  0  0  0  0  0  0  0  0  0
   -2.4813   -3.5196    2.8634 C   0  0  0  0  0  0  0  0  0  0  0  0
   -2.6464   -4.3807    3.5283 H   0  0  0  0  0  0  0  0  0  0  0  0
   -1.7312   -2.4223    3.3057 C   0  0  0  0  0  0  0  0  0  0  0  0
   -1.3083   -2.4172    4.3231 H   0  0  0  0  0  0  0  0  0  0  0  0
   -1.5000   -1.3105    2.4746 C   0  0  0  0  0  0  0  0  0  0  0  0
   -3.4634   -2.3624   -0.6581 C   0  0  0  0  0  0  0  0  0  0  0  0
   -2.6779   -2.4203   -1.4422 H   0  0  0  0  0  0  0  0  0  0  0  0
   -3.9930   -1.3997   -0.8171 H   0  0  0  0  0  0  0  0  0  0  0  0
   -4.1721   -3.1985   -0.8119 H   0  0  0  0  0  0  0  0  0  0  0  0
   -0.6983   -0.1346    2.9632 C   0  0  0  0  0  0  0  0  0  0  0  0
    0.2862   -0.0843    2.4496 H   0  0  0  0  0  0  0  0  0  0  0  0
   -0.5148   -0.2002    4.0529 H   0  0  0  0  0  0  0  0  0  0  0  0
   -1.2124    0.8262    2.7514 H   0  0  0  0  0  0  0  0  0  0  0  0
   -1.2892    1.4335   -1.2830 C   0  0  0  0  0  0  0  0  0  0  0  0
   -2.2140    2.4523   -0.9409 C   0  0  0  0  0  0  0  0  0  0  0  0
   -2.4432    3.5437   -1.7868 C   0  0  0  0  0  0  0  0  0  0  0  0
   -3.1637    4.3118   -1.4712 H   0  0  0  0  0  0  0  0  0  0  0  0
   -1.7611    3.6340   -3.0085 C   0  0  0  0  0  0  0  0  0  0  0  0
   -1.9488    4.4879   -3.6770 H   0  0  0  0  0  0  0  0  0  0  0  0
   -0.8460    2.6337   -3.3739 C   0  0  0  0  0  0  0  0  0  0  0  0
   -0.3141    2.6935   -4.3350 H   0  0  0  0  0  0  0  0  0  0  0  0
   -0.6063    1.5552   -2.5129 C   0  0  0  0  0  0  0  0  0  0  0  0
    0.1083    0.7630   -2.7846 H   0  0  0  0  0  0  0  0  0  0  0  0
   -4.0083    1.6725    0.4025 C   0  0  0  0  0  0  0  0  0  0  0  0
   -4.3639    1.4563    1.8473 C   0  0  0  0  0  0  0  0  0  0  0  0
   -5.4548    1.3139    1.9435 H   0  0  0  0  0  0  0  0  0  0  0  0
   -4.0139    2.2905    2.4828 H   0  0  0  0  0  0  0  0  0  0  0  0
   -3.8592    0.5271    2.1850 H   0  0  0  0  0  0  0  0  0  0  0  0
   -2.8374    2.4240    0.3023 O   0  0  0  0  0  0  0  0  0  0  0  0
   -4.6218    1.2892   -0.5636 O   0  0  0  0  0  0  0  0  0  0  0  0
  1  3  1  0  0  0  0
  2  1  1  0  0  0  0
  3 11  1  0  0  0  0
  4  3  2  0  0  0  0
  4  5  1  0  0  0  0
  5  7  2  0  0  0  0
  6  5  1  0  0  0  0
  7  9  1  0  0  0  0
  7  8  1  0  0  0  0
  9 10  1  0  0  0  0
 11 16  1  0  0  0  0
 11  9  2  0  0  0  0
 12  4  1  0  0  0  0
 13 12  1  0  0  0  0
 14 12  1  0  0  0  0
 15 12  1  0  0  0  0
 16 18  1  0  0  0  0
 17 16  1  0  0  0  0
 19 16  1  0  0  0  0
 20 21  1  0  0  0  0
 20  2  1  0  0  0  0
 21 35  1  0  0  0  0
 22 23  1  0  0  0  0
 22 21  2  0  0  0  0
 24 22  1  0  0  0  0
 25 24  1  0  0  0  0
 26 24  2  0  0  0  0
 26 28  1  0  0  0  0
 27 26  1  0  0  0  0
 28 20  2  0  0  0  0
 29 28  1  0  0  0  0
 30 31  1  0  0  0  0
 31 32  1  0  0  0  0
 31 34  1  0  0  0  0
 31 33  1  0  0  0  0
 35 30  1  0  0  0  0
 36 30  2  0  0  0  0
M  END
