1
 OpenBabel05122313113D

 51 52  0  0  0  0  0  0  0  0999 V2000
   -0.2121   -0.2879    0.0764 C   0  0  0  0  0  3  0  0  0  0  0  0
    0.1732    1.0613    0.1017 N   0  0  0  0  0  0  0  0  0  0  0  0
   -1.4359   -0.6390   -0.0147 N   0  0  0  0  0  0  0  0  0  0  0  0
   -1.9027   -2.0074   -0.0597 C   0  0  0  0  0  0  0  0  0  0  0  0
   -1.0504   -2.7255   -0.0339 H   0  0  0  0  0  0  0  0  0  0  0  0
   -0.7619    2.2005    0.0707 C   0  0  0  0  0  0  0  0  0  0  0  0
   -0.1275    3.1104    0.1174 H   0  0  0  0  0  0  0  0  0  0  0  0
    2.6365    2.1480   -0.1857 C   0  0  0  0  0  0  0  0  0  0  0  0
   -2.7013   -2.2414   -1.3619 C   0  0  0  0  0  0  0  0  0  0  0  0
   -2.0624   -2.0013   -2.2384 H   0  0  0  0  0  0  0  0  0  0  0  0
   -2.9403   -3.3260   -1.4294 H   0  0  0  0  0  0  0  0  0  0  0  0
   -1.5748    2.2615   -1.2341 C   0  0  0  0  0  0  0  0  0  0  0  0
   -0.8801    2.2922   -2.1000 H   0  0  0  0  0  0  0  0  0  0  0  0
   -2.1574    1.3213   -1.3161 H   0  0  0  0  0  0  0  0  0  0  0  0
    2.2120    2.9343   -1.4511 C   0  0  0  0  0  0  0  0  0  0  0  0
    2.9259    3.7659   -1.6378 H   0  0  0  0  0  0  0  0  0  0  0  0
    1.2028    3.3800   -1.3656 H   0  0  0  0  0  0  0  0  0  0  0  0
    2.2133    2.2918   -2.3563 H   0  0  0  0  0  0  0  0  0  0  0  0
    1.5882    0.9517    0.0504 B   0  0  0  0  0  2  0  0  0  0  0  0
    2.5820    3.0841    1.0484 C   0  0  0  0  0  0  0  0  0  0  0  0
    3.2526    3.9579    0.8943 H   0  0  0  0  0  0  0  0  0  0  0  0
    2.9153    2.5569    1.9634 H   0  0  0  0  0  0  0  0  0  0  0  0
    1.5630    3.4773    1.2375 H   0  0  0  0  0  0  0  0  0  0  0  0
   -1.6759    2.2176    1.3086 C   0  0  0  0  0  0  0  0  0  0  0  0
   -2.2643    1.2775    1.3156 H   0  0  0  0  0  0  0  0  0  0  0  0
   -1.0498    2.2178    2.2253 H   0  0  0  0  0  0  0  0  0  0  0  0
   -4.0001   -1.4256   -1.4046 C   0  0  0  0  0  0  0  0  0  0  0  0
   -4.5577   -1.6454   -2.3393 H   0  0  0  0  0  0  0  0  0  0  0  0
   -3.7446   -0.3443   -1.4329 H   0  0  0  0  0  0  0  0  0  0  0  0
   -4.8763   -1.7056   -0.1762 C   0  0  0  0  0  0  0  0  0  0  0  0
   -5.7924   -1.0784   -0.2038 H   0  0  0  0  0  0  0  0  0  0  0  0
   -5.2228   -2.7641   -0.2093 H   0  0  0  0  0  0  0  0  0  0  0  0
   -3.4333    3.4760   -0.0138 C   0  0  0  0  0  0  0  0  0  0  0  0
   -4.1018    2.5866   -0.0552 H   0  0  0  0  0  0  0  0  0  0  0  0
   -4.0941    4.3680   -0.0251 H   0  0  0  0  0  0  0  0  0  0  0  0
   -2.6156    3.4289    1.2834 C   0  0  0  0  0  0  0  0  0  0  0  0
   -2.0190    4.3658    1.3711 H   0  0  0  0  0  0  0  0  0  0  0  0
   -3.2865    3.4051    2.1675 H   0  0  0  0  0  0  0  0  0  0  0  0
   -2.5164    3.4716   -1.2439 C   0  0  0  0  0  0  0  0  0  0  0  0
   -3.1157    3.4777   -2.1785 H   0  0  0  0  0  0  0  0  0  0  0  0
   -1.9163    4.4104   -1.2534 H   0  0  0  0  0  0  0  0  0  0  0  0
    4.0997    1.7062   -0.3902 C   0  0  0  0  0  0  0  0  0  0  0  0
    4.7482    2.6012   -0.5050 H   0  0  0  0  0  0  0  0  0  0  0  0
    4.2261    1.1007   -1.3098 H   0  0  0  0  0  0  0  0  0  0  0  0
    4.4902    1.1248    0.4660 H   0  0  0  0  0  0  0  0  0  0  0  0
   -2.8048   -2.2869    1.1635 C   0  0  0  0  0  0  0  0  0  0  0  0
   -2.2294   -2.0857    2.0895 H   0  0  0  0  0  0  0  0  0  0  0  0
   -3.0472   -3.3729    1.1685 H   0  0  0  0  0  0  0  0  0  0  0  0
   -4.1026   -1.4706    1.1281 C   0  0  0  0  0  0  0  0  0  0  0  0
   -4.7344   -1.7218    2.0058 H   0  0  0  0  0  0  0  0  0  0  0  0
   -3.8525   -0.3911    1.2160 H   0  0  0  0  0  0  0  0  0  0  0  0
  1  2  1  0  0  0  0
  3  1  2  0  0  0  0
  4  5  1  0  0  0  0
  4  3  1  0  0  0  0
  4 46  1  0  0  0  0
  6  2  1  0  0  0  0
  6  7  1  0  0  0  0
  6 24  1  0  0  0  0
  8 19  1  0  0  0  0
  8 20  1  0  0  0  0
  9  4  1  0  0  0  0
 10  9  1  0  0  0  0
 11  9  1  0  0  0  0
 12  6  1  0  0  0  0
 13 12  1  0  0  0  0
 14 12  1  0  0  0  0
 15 17  1  0  0  0  0
 15  8  1  0  0  0  0
 16 15  1  0  0  0  0
 18 15  1  0  0  0  0
 19  2  1  0  0  0  0
 20 23  1  0  0  0  0
 20 22  1  0  0  0  0
 21 20  1  0  0  0  0
 24 25  1  0  0  0  0
 24 26  1  0  0  0  0
 27  9  1  0  0  0  0
 27 30  1  0  0  0  0
 28 27  1  0  0  0  0
 29 27  1  0  0  0  0
 30 49  1  0  0  0  0
 31 30  1  0  0  0  0
 32 30  1  0  0  0  0
 33 36  1  0  0  0  0
 34 33  1  0  0  0  0
 35 33  1  0  0  0  0
 36 24  1  0  0  0  0
 36 37  1  0  0  0  0
 36 38  1  0  0  0  0
 39 12  1  0  0  0  0
 39 33  1  0  0  0  0
 40 39  1  0  0  0  0
 41 39  1  0  0  0  0
 42  8  1  0  0  0  0
 42 45  1  0  0  0  0
 43 42  1  0  0  0  0
 44 42  1  0  0  0  0
 46 48  1  0  0  0  0
 46 47  1  0  0  0  0
 49 46  1  0  0  0  0
 49 51  1  0  0  0  0
 49 50  1  0  0  0  0
M  END
