1
 OpenBabel05122313113D

  7  6  0  0  0  0  0  0  0  0999 V2000
    0.0055   -2.1953    0.3108 C   0  0  0  0  0  2  0  0  0  0  0  0
   -0.0938   -2.6856    1.3186 H   0  0  0  0  0  0  0  0  0  0  0  0
    0.1167   -3.0898   -0.6373 O   0  0  0  0  0  0  0  0  0  0  0  0
    0.1158   -4.5080   -0.3507 C   0  0  0  0  0  0  0  0  0  0  0  0
   -0.7260   -4.9613   -0.9073 H   0  0  0  0  0  0  0  0  0  0  0  0
    0.0054   -4.6812    0.7394 H   0  0  0  0  0  0  0  0  0  0  0  0
    1.0722   -4.9241   -0.7195 H   0  0  0  0  0  0  0  0  0  0  0  0
  1  2  1  0  0  0  0
  3  4  1  0  0  0  0
  3  1  1  0  0  0  0
  4  6  1  0  0  0  0
  5  4  1  0  0  0  0
  7  4  1  0  0  0  0
M  END
