14
 OpenBabel05122313113D

 44 46  0  0  1  0  0  0  0  0999 V2000
   -1.2661   -1.7776   -0.4006 N   0  3  0  0  0  0  0  0  0  0  0  0
   -1.1140   -2.2600    0.5345 H   0  0  0  0  0  0  0  0  0  0  0  0
   -3.9151   -0.7603   -0.0944 N   0  0  0  0  0  0  0  0  0  0  0  0
    0.5889   -2.4570    1.2239 O   0  0  0  0  0  0  0  0  0  0  0  0
   -4.4598    1.8550   -0.5383 O   0  0  0  0  0  0  0  0  0  0  0  0
    3.4494   -1.6970    0.9632 C   0  0  0  0  0  0  0  0  0  0  0  0
    3.2610   -1.9244    2.0193 H   0  0  0  0  0  0  0  0  0  0  0  0
    4.6607   -1.2298    0.3891 C   0  0  0  0  0  0  0  0  0  0  0  0
    5.5951   -1.0336    0.9287 H   0  0  0  0  0  0  0  0  0  0  0  0
    4.4590   -1.0709   -1.0362 C   0  0  0  0  0  0  0  0  0  0  0  0
    5.2154   -0.7470   -1.7610 H   0  0  0  0  0  0  0  0  0  0  0  0
    3.1165   -1.4310   -1.3397 C   0  0  0  0  0  0  0  0  0  0  0  0
    2.6747   -1.4372   -2.3436 H   0  0  0  0  0  0  0  0  0  0  0  0
    2.4682   -1.8356   -0.0991 C   0  0  2  0  0  3  0  0  0  0  0  0
    1.0599   -2.1219    0.1308 C   0  0  0  0  0  0  0  0  0  0  0  0
    0.0614   -1.9886   -1.0422 C   0  0  0  0  0  0  0  0  0  0  0  0
    0.2843   -1.1567   -1.7345 H   0  0  0  0  0  0  0  0  0  0  0  0
    0.0381   -2.9378   -1.6162 H   0  0  0  0  0  0  0  0  0  0  0  0
   -1.5197   -0.3221   -0.0748 C   0  0  0  0  0  0  0  0  0  0  0  0
   -0.6568    0.0342    0.5206 H   0  0  0  0  0  0  0  0  0  0  0  0
   -1.5613    0.2254   -1.0360 H   0  0  0  0  0  0  0  0  0  0  0  0
   -2.8295   -0.1843    0.6824 C   0  0  0  0  0  0  0  0  0  0  0  0
   -3.0165    0.8938    0.8351 H   0  0  0  0  0  0  0  0  0  0  0  0
   -2.7369   -0.6618    1.6934 H   0  0  0  0  0  0  0  0  0  0  0  0
   -2.4316   -2.3894   -1.1251 C   0  0  0  0  0  0  0  0  0  0  0  0
   -2.4909   -1.8995   -2.1165 H   0  0  0  0  0  0  0  0  0  0  0  0
   -2.2116   -3.4671   -1.2561 H   0  0  0  0  0  0  0  0  0  0  0  0
   -3.7200   -2.1706   -0.3355 C   0  0  0  0  0  0  0  0  0  0  0  0
   -3.6810   -2.7821    0.6064 H   0  0  0  0  0  0  0  0  0  0  0  0
   -4.5573   -2.5683   -0.9416 H   0  0  0  0  0  0  0  0  0  0  0  0
   -5.2320   -0.2788    0.1441 C   0  0  0  0  0  0  0  0  0  0  0  0
   -6.2761   -1.1175    0.5716 C   0  0  0  0  0  0  0  0  0  0  0  0
   -6.0710   -2.1762    0.7869 H   0  0  0  0  0  0  0  0  0  0  0  0
   -7.5807   -0.6250    0.7398 C   0  0  0  0  0  0  0  0  0  0  0  0
   -8.3819   -1.3016    1.0699 H   0  0  0  0  0  0  0  0  0  0  0  0
   -7.8458    0.7269    0.4988 C   0  0  0  0  0  0  0  0  0  0  0  0
   -8.8612    1.1274    0.6329 H   0  0  0  0  0  0  0  0  0  0  0  0
   -6.8162    1.5874    0.0805 C   0  0  0  0  0  0  0  0  0  0  0  0
   -7.0426    2.6437   -0.1143 H   0  0  0  0  0  0  0  0  0  0  0  0
   -5.5140    1.0970   -0.1108 C   0  0  0  0  0  0  0  0  0  0  0  0
   -4.6938    3.2228   -0.8481 C   0  0  0  0  0  0  0  0  0  0  0  0
   -3.7263    3.6345   -1.1891 H   0  0  0  0  0  0  0  0  0  0  0  0
   -5.0391    3.7938    0.0412 H   0  0  0  0  0  0  0  0  0  0  0  0
   -5.4429    3.3333   -1.6618 H   0  0  0  0  0  0  0  0  0  0  0  0
  1 19  1  0  0  0  0
  1  2  1  0  0  0  0
  3 31  1  0  0  0  0
  3 22  1  0  0  0  0
  5 40  1  0  0  0  0
  6  7  1  0  0  0  0
  8  9  1  0  0  0  0
  8  6  2  0  0  0  0
 10  8  1  0  0  0  0
 11 10  1  0  0  0  0
 12 10  2  0  0  0  0
 12 14  1  0  0  0  0
 13 12  1  0  0  0  0
 14 15  1  1  0  0  0
 14  6  1  0  0  0  0
 15  4  2  0  0  0  0
 16  1  1  0  0  0  0
 16 15  1  0  0  0  0
 17 16  1  0  0  0  0
 18 16  1  0  0  0  0
 19 20  1  0  0  0  0
 19 22  1  0  0  0  0
 21 19  1  0  0  0  0
 22 23  1  0  0  0  0
 22 24  1  0  0  0  0
 25  1  1  0  0  0  0
 25 28  1  0  0  0  0
 26 25  1  0  0  0  0
 27 25  1  0  0  0  0
 28  3  1  0  0  0  0
 28 29  1  0  0  0  0
 30 28  1  0  0  0  0
 31 32  1  0  0  0  0
 32 34  2  0  0  0  0
 32 33  1  0  0  0  0
 34 35  1  0  0  0  0
 36 37  1  0  0  0  0
 36 34  1  0  0  0  0
 38 36  2  0  0  0  0
 39 38  1  0  0  0  0
 40 38  1  0  0  0  0
 40 31  2  0  0  0  0
 41  5  1  0  0  0  0
 41 43  1  0  0  0  0
 42 41  1  0  0  0  0
 44 41  1  0  0  0  0
M  CHG  1   1   1
M  END
