4
 OpenBabel05122313113D

 30 33  0  0  1  0  0  0  0  0999 V2000
    5.9689   -1.9771    0.0221 Cl  0  0  0  0  0  0  0  0  0  0  0  0
    0.3503    0.0482    0.0244 N   0  0  0  0  0  0  0  0  0  0  0  0
   -1.6559    0.9379   -0.7603 C   0  0  0  0  0  3  0  0  0  0  0  0
   -1.6648    1.0005    0.6838 C   0  0  0  0  0  3  0  0  0  0  0  0
   -0.1782    0.9393    1.0883 C   0  0  2  0  0  0  0  0  0  0  0  0
    0.4000    2.2861    0.6352 C   0  0  0  0  0  0  0  0  0  0  0  0
    0.8192    3.4295    1.3075 C   0  0  0  0  0  0  0  0  0  0  0  0
    1.2764    4.5234    0.5360 C   0  0  0  0  0  0  0  0  0  0  0  0
    1.2909    4.4600   -0.8643 C   0  0  0  0  0  0  0  0  0  0  0  0
    0.8471    3.3017   -1.5440 C   0  0  0  0  0  0  0  0  0  0  0  0
    0.4106    2.2237   -0.7813 C   0  0  0  0  0  0  0  0  0  0  0  0
   -0.1642    0.8457   -1.1309 C   0  0  1  0  0  0  0  0  0  0  0  0
    1.6957   -0.3801    0.0343 C   0  0  0  0  0  0  0  0  0  0  0  0
    2.1848   -1.1230   -1.0632 C   0  0  0  0  0  0  0  0  0  0  0  0
    3.4952   -1.6089   -1.0732 C   0  0  0  0  0  0  0  0  0  0  0  0
    4.3341   -1.3688    0.0278 C   0  0  0  0  0  0  0  0  0  0  0  0
    3.8619   -0.6435    1.1319 C   0  0  0  0  0  0  0  0  0  0  0  0
    2.5512   -0.1499    1.1320 C   0  0  0  0  0  0  0  0  0  0  0  0
   -2.2785    1.5867   -1.3942 H   0  0  0  0  0  0  0  0  0  0  0  0
   -2.2936    1.7015    1.2525 H   0  0  0  0  0  0  0  0  0  0  0  0
    0.0444    0.5985    2.1142 H   0  0  0  0  0  0  0  0  0  0  0  0
    0.8098    3.4849    2.4070 H   0  0  0  0  0  0  0  0  0  0  0  0
    1.6322    5.4331    1.0428 H   0  0  0  0  0  0  0  0  0  0  0  0
    1.6583    5.3207   -1.4434 H   0  0  0  0  0  0  0  0  0  0  0  0
    0.8591    3.2586   -2.6438 H   0  0  0  0  0  0  0  0  0  0  0  0
    0.0937    0.4255   -2.1178 H   0  0  0  0  0  0  0  0  0  0  0  0
    1.5261   -1.3374   -1.9164 H   0  0  0  0  0  0  0  0  0  0  0  0
    3.8700   -2.1872   -1.9291 H   0  0  0  0  0  0  0  0  0  0  0  0
    4.5271   -0.4564    1.9862 H   0  0  0  0  0  0  0  0  0  0  0  0
    2.2049    0.4341    1.9944 H   0  0  0  0  0  0  0  0  0  0  0  0
  1 16  1  0  0  0  0
  2 13  1  0  0  0  0
  2  5  1  0  0  0  0
  3  4  1  0  0  0  0
  4  5  1  0  0  0  0
  4 20  1  0  0  0  0
  5 21  1  1  0  0  0
  6  5  1  0  0  0  0
  6  7  1  0  0  0  0
  7 22  1  0  0  0  0
  8 23  1  0  0  0  0
  8  7  2  0  0  0  0
  9  8  1  0  0  0  0
 10  9  2  0  0  0  0
 10 11  1  0  0  0  0
 11  6  2  0  0  0  0
 12 26  1  6  0  0  0
 12 11  1  0  0  0  0
 12  3  1  0  0  0  0
 12  2  1  0  0  0  0
 13 18  1  0  0  0  0
 14 13  2  0  0  0  0
 15 14  1  0  0  0  0
 15 16  2  0  0  0  0
 16 17  1  0  0  0  0
 17 18  2  0  0  0  0
 17 29  1  0  0  0  0
 18 30  1  0  0  0  0
 19  3  1  0  0  0  0
 24  9  1  0  0  0  0
 25 10  1  0  0  0  0
 27 14  1  0  0  0  0
 28 15  1  0  0  0  0
M  END
