4
 OpenBabel05122313113D

 36 40  0  0  0  0  0  0  0  0999 V2000
   -1.0478    0.0360    0.0443 N   0  0  0  0  0  0  0  0  0  0  0  0
    0.5092    1.4967    0.0962 N   0  0  0  0  0  0  0  0  0  0  0  0
   -0.6453    2.2318    0.1061 N   0  0  0  0  0  0  0  0  0  0  0  0
    0.3295    0.1473    0.0286 C   0  0  0  0  0  2  0  0  0  0  0  0
   -1.5976    1.3198    0.0716 C   0  0  0  0  0  0  0  0  0  0  0  0
   -3.0261    1.5276    0.0330 C   0  0  0  0  0  0  0  0  0  0  0  0
   -3.8688    0.3819   -0.0502 C   0  0  0  0  0  0  0  0  0  0  0  0
   -5.2657    0.6045   -0.1137 C   0  0  0  0  0  0  0  0  0  0  0  0
   -5.9540   -0.2487   -0.1802 H   0  0  0  0  0  0  0  0  0  0  0  0
   -5.7945    1.8962   -0.0905 C   0  0  0  0  0  0  0  0  0  0  0  0
   -6.8847    2.0360   -0.1402 H   0  0  0  0  0  0  0  0  0  0  0  0
   -4.9445    3.0179   -0.0019 C   0  0  0  0  0  0  0  0  0  0  0  0
   -5.3675    4.0330    0.0189 H   0  0  0  0  0  0  0  0  0  0  0  0
   -3.5645    2.8332    0.0589 C   0  0  0  0  0  0  0  0  0  0  0  0
   -2.8729    3.6850    0.1268 H   0  0  0  0  0  0  0  0  0  0  0  0
   -3.2678   -0.9616   -0.0499 C   0  0  0  0  0  0  0  0  0  0  0  0
   -1.8531   -1.1279    0.0237 C   0  0  0  0  0  0  0  0  0  0  0  0
   -1.2697   -2.4057    0.0918 C   0  0  0  0  0  0  0  0  0  0  0  0
   -0.1758   -2.4862    0.2071 H   0  0  0  0  0  0  0  0  0  0  0  0
   -2.0795   -3.5415    0.0490 C   0  0  0  0  0  0  0  0  0  0  0  0
   -1.6156   -4.5370    0.1097 H   0  0  0  0  0  0  0  0  0  0  0  0
   -3.4760   -3.4092   -0.0544 C   0  0  0  0  0  0  0  0  0  0  0  0
   -4.1178   -4.3019   -0.0887 H   0  0  0  0  0  0  0  0  0  0  0  0
   -4.0527   -2.1395   -0.0946 C   0  0  0  0  0  0  0  0  0  0  0  0
   -5.1459   -2.0543   -0.1545 H   0  0  0  0  0  0  0  0  0  0  0  0
    1.7687    2.1713    0.1184 C   0  0  0  0  0  0  0  0  0  0  0  0
    1.9167    3.3575   -0.6193 C   0  0  0  0  0  0  0  0  0  0  0  0
    1.0583    3.7529   -1.1794 H   0  0  0  0  0  0  0  0  0  0  0  0
    3.1585    4.0069   -0.6237 C   0  0  0  0  0  0  0  0  0  0  0  0
    3.2842    4.9332   -1.2043 H   0  0  0  0  0  0  0  0  0  0  0  0
    4.2382    3.4753    0.1012 C   0  0  0  0  0  0  0  0  0  0  0  0
    5.2126    3.9865    0.0906 H   0  0  0  0  0  0  0  0  0  0  0  0
    4.0678    2.2996    0.8497 C   0  0  0  0  0  0  0  0  0  0  0  0
    4.9026    1.8915    1.4391 H   0  0  0  0  0  0  0  0  0  0  0  0
    2.8294    1.6413    0.8738 C   0  0  0  0  0  0  0  0  0  0  0  0
    2.6733    0.7362    1.4846 H   0  0  0  0  0  0  0  0  0  0  0  0
  1  5  1  0  0  0  0
  2  3  1  0  0  0  0
  2 26  1  0  0  0  0
  4  1  1  0  0  0  0
  4  2  1  0  0  0  0
  5  3  2  0  0  0  0
  6 14  1  0  0  0  0
  6  5  1  0  0  0  0
  7 16  1  0  0  0  0
  7  6  2  0  0  0  0
  8 10  2  0  0  0  0
  8  7  1  0  0  0  0
  9  8  1  0  0  0  0
 10 12  1  0  0  0  0
 11 10  1  0  0  0  0
 12 13  1  0  0  0  0
 12 14  2  0  0  0  0
 14 15  1  0  0  0  0
 16 17  1  0  0  0  0
 17  1  1  0  0  0  0
 17 18  2  0  0  0  0
 18 19  1  0  0  0  0
 20 18  1  0  0  0  0
 20 21  1  0  0  0  0
 22 20  2  0  0  0  0
 23 22  1  0  0  0  0
 24 22  1  0  0  0  0
 24 16  2  0  0  0  0
 25 24  1  0  0  0  0
 26 35  1  0  0  0  0
 27 26  2  0  0  0  0
 28 27  1  0  0  0  0
 29 27  1  0  0  0  0
 29 31  2  0  0  0  0
 30 29  1  0  0  0  0
 31 33  1  0  0  0  0
 32 31  1  0  0  0  0
 33 35  2  0  0  0  0
 33 34  1  0  0  0  0
 35 36  1  0  0  0  0
M  END
