4
 OpenBabel05122313113D

 53 56  0  0  1  0  0  0  0  0999 V2000
    1.4105   -0.7391    0.1303 O   0  0  0  0  0  0  0  0  0  0  0  0
    1.0995    0.5435    0.7837 C   0  0  2  0  0  0  0  0  0  0  0  0
   -0.4336    0.3830    0.5280 C   0  0  2  0  0  3  0  0  0  0  0  0
   -0.5041   -0.2780   -0.8202 C   0  0  2  0  0  3  0  0  0  0  0  0
    0.9842   -0.4198   -1.2480 C   0  0  1  0  0  0  0  0  0  0  0  0
    1.8151    1.6969   -2.6296 C   0  0  0  0  0  0  0  0  0  0  0  0
    2.2090    3.0409   -2.4872 C   0  0  0  0  0  0  0  0  0  0  0  0
    2.2865    3.6421   -1.2170 C   0  0  0  0  0  0  0  0  0  0  0  0
    1.9683    2.9157   -0.0533 C   0  0  0  0  0  0  0  0  0  0  0  0
    1.5911    1.5797   -0.2036 C   0  0  0  0  0  0  0  0  0  0  0  0
    1.5215    0.9784   -1.4695 C   0  0  0  0  0  0  0  0  0  0  0  0
    1.6223   -1.5070   -2.1020 C   0  0  0  0  0  0  0  0  0  0  0  0
    2.8847   -2.0897   -1.3819 C   0  0  0  0  0  0  0  0  0  0  0  0
    3.8575   -1.1403   -0.6013 C   0  0  0  0  0  0  0  0  0  0  0  0
    3.8001   -1.1285    0.9698 C   0  0  0  0  0  0  0  0  0  0  0  0
    3.3933    0.1679    1.7432 C   0  0  0  0  0  0  0  0  0  0  0  0
    1.9000    0.4748    2.0695 C   0  0  0  0  0  0  0  0  0  0  0  0
   -1.4090    1.3481    1.0768 C   0  0  0  0  0  0  0  0  0  0  0  0
   -2.5791    1.4858    0.7641 O   0  0  0  0  0  0  0  0  0  0  0  0
   -0.7921    2.1115    2.0331 O   0  0  0  0  0  0  0  0  0  0  0  0
   -1.5979    3.1431    2.6401 C   0  0  0  0  0  0  0  0  0  0  0  0
   -1.5877    4.4139    1.8055 C   0  0  0  0  0  0  0  0  0  0  0  0
   -1.5143   -0.0710   -1.8868 C   0  0  0  0  0  0  0  0  0  0  0  0
   -1.2118    0.2836   -3.0190 O   0  0  0  0  0  0  0  0  0  0  0  0
   -2.7664   -0.3357   -1.4789 O   0  0  0  0  0  0  0  0  0  0  0  0
   -3.8545    0.0235   -2.3540 C   0  0  0  0  0  0  0  0  0  0  0  0
   -5.0721    0.2648   -1.4836 C   0  0  0  0  0  0  0  0  0  0  0  0
    1.7214    1.2354   -3.6232 H   0  0  0  0  0  0  0  0  0  0  0  0
    2.4524    3.6326   -3.3824 H   0  0  0  0  0  0  0  0  0  0  0  0
    2.5952    4.6951   -1.1334 H   0  0  0  0  0  0  0  0  0  0  0  0
    2.0142    3.3873    0.9396 H   0  0  0  0  0  0  0  0  0  0  0  0
    0.9112   -2.3280   -2.3158 H   0  0  0  0  0  0  0  0  0  0  0  0
    1.8950   -1.0686   -3.0818 H   0  0  0  0  0  0  0  0  0  0  0  0
    3.4626   -2.6279   -2.1612 H   0  0  0  0  0  0  0  0  0  0  0  0
    2.5452   -2.8791   -0.6789 H   0  0  0  0  0  0  0  0  0  0  0  0
    3.7732   -0.1033   -0.9873 H   0  0  0  0  0  0  0  0  0  0  0  0
    4.8856   -1.4532   -0.8789 H   0  0  0  0  0  0  0  0  0  0  0  0
    4.8277   -1.3588    1.3234 H   0  0  0  0  0  0  0  0  0  0  0  0
    3.1805   -1.9802    1.3231 H   0  0  0  0  0  0  0  0  0  0  0  0
    3.9133    0.1366    2.7237 H   0  0  0  0  0  0  0  0  0  0  0  0
    3.8280    1.0437    1.2142 H   0  0  0  0  0  0  0  0  0  0  0  0
    1.8225    1.4382    2.6105 H   0  0  0  0  0  0  0  0  0  0  0  0
    1.4798   -0.2980    2.7417 H   0  0  0  0  0  0  0  0  0  0  0  0
   -1.1450    3.3041    3.6382 H   0  0  0  0  0  0  0  0  0  0  0  0
   -2.6313    2.7606    2.7647 H   0  0  0  0  0  0  0  0  0  0  0  0
   -2.1482    5.2171    2.3251 H   0  0  0  0  0  0  0  0  0  0  0  0
   -2.0691    4.2367    0.8242 H   0  0  0  0  0  0  0  0  0  0  0  0
   -0.5519    4.7687    1.6322 H   0  0  0  0  0  0  0  0  0  0  0  0
   -3.5595    0.9184   -2.9396 H   0  0  0  0  0  0  0  0  0  0  0  0
   -4.0109   -0.8049   -3.0790 H   0  0  0  0  0  0  0  0  0  0  0  0
   -5.9396    0.5552   -2.1089 H   0  0  0  0  0  0  0  0  0  0  0  0
   -4.8605    1.0699   -0.7538 H   0  0  0  0  0  0  0  0  0  0  0  0
   -5.3378   -0.6479   -0.9146 H   0  0  0  0  0  0  0  0  0  0  0  0
  1  2  1  0  0  0  0
  2 10  1  6  0  0  0
  2 17  1  0  0  0  0
  3  2  1  0  0  0  0
  3 18  1  6  0  0  0
  4 23  1  6  0  0  0
  4  3  1  0  0  0  0
  5 11  1  6  0  0  0
  5  4  1  0  0  0  0
  5  1  1  0  0  0  0
  6  7  2  0  0  0  0
  6 11  1  0  0  0  0
  7  8  1  0  0  0  0
  8 30  1  0  0  0  0
  8  9  2  0  0  0  0
  9 31  1  0  0  0  0
 10  9  1  0  0  0  0
 11 10  2  0  0  0  0
 12 13  1  0  0  0  0
 12  5  1  0  0  0  0
 13 35  1  0  0  0  0
 13 14  1  0  0  0  0
 14 15  1  0  0  0  0
 15 39  1  0  0  0  0
 15 38  1  0  0  0  0
 15 16  1  0  0  0  0
 16 17  1  0  0  0  0
 16 40  1  0  0  0  0
 17 42  1  0  0  0  0
 17 43  1  0  0  0  0
 18 20  1  0  0  0  0
 19 18  2  0  0  0  0
 20 21  1  0  0  0  0
 21 45  1  0  0  0  0
 21 44  1  0  0  0  0
 22 46  1  0  0  0  0
 22 21  1  0  0  0  0
 23 25  1  0  0  0  0
 24 23  2  0  0  0  0
 26 27  1  0  0  0  0
 26 25  1  0  0  0  0
 27 53  1  0  0  0  0
 27 52  1  0  0  0  0
 28  6  1  0  0  0  0
 29  7  1  0  0  0  0
 32 12  1  0  0  0  0
 33 12  1  0  0  0  0
 34 13  1  0  0  0  0
 36 14  1  0  0  0  0
 37 14  1  0  0  0  0
 41 16  1  0  0  0  0
 47 22  1  0  0  0  0
 48 22  1  0  0  0  0
 49 26  1  0  0  0  0
 50 26  1  0  0  0  0
 51 27  1  0  0  0  0
M  END
