3
 OpenBabel05122313113D

 36 37  0  0  0  0  0  0  0  0999 V2000
   -0.4697    0.0065   -0.4614 P   0  0  0  0  0  0  0  0  0  0  0  0
    2.0476    1.6009   -0.7186 C   0  0  0  0  0  3  0  0  0  0  0  0
    2.3731    0.6063   -1.6828 C   0  0  0  0  0  3  0  0  0  0  0  0
    1.4317   -0.3416   -2.1656 C   0  0  0  0  0  3  0  0  0  0  0  0
   -0.0612   -0.0267   -2.2660 C   0  0  0  0  0  0  0  0  0  0  0  0
    3.1046    2.4868   -0.1094 C   0  0  0  0  0  0  0  0  0  0  0  0
   -1.7961   -1.2211   -0.1422 C   0  0  0  0  0  0  0  0  0  0  0  0
   -1.8362   -1.8344    1.1260 C   0  0  0  0  0  0  0  0  0  0  0  0
   -2.8619   -2.7375    1.4390 C   0  0  0  0  0  0  0  0  0  0  0  0
   -3.8485   -3.0404    0.4875 C   0  0  0  0  0  0  0  0  0  0  0  0
   -3.8111   -2.4342   -0.7785 C   0  0  0  0  0  0  0  0  0  0  0  0
   -2.7908   -1.5245   -1.0928 C   0  0  0  0  0  0  0  0  0  0  0  0
   -1.3247    1.5914   -0.0716 C   0  0  0  0  0  0  0  0  0  0  0  0
   -1.0549    2.2438    1.1479 C   0  0  0  0  0  0  0  0  0  0  0  0
   -1.7281    3.4317    1.4729 C   0  0  0  0  0  0  0  0  0  0  0  0
   -2.6661    3.9782    0.5834 C   0  0  0  0  0  0  0  0  0  0  0  0
   -2.9358    3.3325   -0.6345 C   0  0  0  0  0  0  0  0  0  0  0  0
   -2.2702    2.1421   -0.9609 C   0  0  0  0  0  0  0  0  0  0  0  0
    1.0508    2.0738   -0.7751 H   0  0  0  0  0  0  0  0  0  0  0  0
    3.4349    0.4436   -1.9362 H   0  0  0  0  0  0  0  0  0  0  0  0
    1.8162   -1.1403   -2.8186 H   0  0  0  0  0  0  0  0  0  0  0  0
   -0.6097   -0.8489   -2.7633 H   0  0  0  0  0  0  0  0  0  0  0  0
   -0.2911    0.9210   -2.8000 H   0  0  0  0  0  0  0  0  0  0  0  0
    2.8225    2.8000    0.9159 H   0  0  0  0  0  0  0  0  0  0  0  0
    4.0817    1.9679   -0.0413 H   0  0  0  0  0  0  0  0  0  0  0  0
    3.2493    3.4163   -0.7040 H   0  0  0  0  0  0  0  0  0  0  0  0
   -1.0537   -1.6079    1.8668 H   0  0  0  0  0  0  0  0  0  0  0  0
   -2.8838   -3.2157    2.4298 H   0  0  0  0  0  0  0  0  0  0  0  0
   -4.6482   -3.7561    0.7313 H   0  0  0  0  0  0  0  0  0  0  0  0
   -4.5814   -2.6715   -1.5279 H   0  0  0  0  0  0  0  0  0  0  0  0
   -2.7742   -1.0518   -2.0872 H   0  0  0  0  0  0  0  0  0  0  0  0
   -0.3144    1.8244    1.8445 H   0  0  0  0  0  0  0  0  0  0  0  0
   -1.5126    3.9350    2.4275 H   0  0  0  0  0  0  0  0  0  0  0  0
   -3.1888    4.9126    0.8382 H   0  0  0  0  0  0  0  0  0  0  0  0
   -3.6700    3.7584   -1.3353 H   0  0  0  0  0  0  0  0  0  0  0  0
   -2.4935    1.6393   -1.9149 H   0  0  0  0  0  0  0  0  0  0  0  0
  1  7  1  0  0  0  0
  1 13  1  0  0  0  0
  2  6  1  0  0  0  0
  3  2  1  0  0  0  0
  4  3  1  0  0  0  0
  5  4  1  0  0  0  0
  5  1  1  0  0  0  0
  6 25  1  0  0  0  0
  6 24  1  0  0  0  0
  7  8  1  0  0  0  0
  8  9  2  0  0  0  0
  8 27  1  0  0  0  0
  9 28  1  0  0  0  0
 10 29  1  0  0  0  0
 10  9  1  0  0  0  0
 11 10  2  0  0  0  0
 12 11  1  0  0  0  0
 12  7  2  0  0  0  0
 13 14  1  0  0  0  0
 14 15  2  0  0  0  0
 14 32  1  0  0  0  0
 15 33  1  0  0  0  0
 16 34  1  0  0  0  0
 16 15  1  0  0  0  0
 17 16  2  0  0  0  0
 18 17  1  0  0  0  0
 18 13  2  0  0  0  0
 19  2  1  0  0  0  0
 20  3  1  0  0  0  0
 21  4  1  0  0  0  0
 22  5  1  0  0  0  0
 23  5  1  0  0  0  0
 26  6  1  0  0  0  0
 30 11  1  0  0  0  0
 31 12  1  0  0  0  0
 35 17  1  0  0  0  0
 36 18  1  0  0  0  0
M  END
