6
 OpenBabel05122313113D

 29 29  0  0  0  0  0  0  0  0999 V2000
   -0.5301    2.3227   -2.3684 O   0  0  0  0  0  0  0  0  0  0  0  0
   -0.8472    3.3985   -0.3889 O   0  0  0  0  0  0  0  0  0  0  0  0
   -3.4659    2.0688   -0.8677 O   0  0  0  0  0  0  0  0  0  0  0  0
   -4.1101    0.8952    0.9661 O   0  0  0  0  0  0  0  0  0  0  0  0
   -1.8829   -0.6449    0.9488 N   0  0  0  0  0  4  0  0  0  0  0  0
   -0.7749    1.0328   -0.3686 C   0  0  0  0  0  2  0  0  0  0  0  0
   -1.9276    0.5115    0.1407 C   0  0  0  0  0  0  0  0  0  0  0  0
   -0.7421    2.2708   -1.1612 C   0  0  0  0  0  0  0  0  0  0  0  0
   -0.9204    4.6287   -1.1164 C   0  0  0  0  0  0  0  0  0  0  0  0
   -3.2208    1.2380   -0.0039 C   0  0  0  0  0  0  0  0  0  0  0  0
   -5.3858    1.5302    0.8700 C   0  0  0  0  0  0  0  0  0  0  0  0
   -2.6561   -1.7929    0.7646 C   0  0  0  0  0  0  0  0  0  0  0  0
   -3.6491   -1.9020   -0.2394 C   0  0  0  0  0  0  0  0  0  0  0  0
   -4.3978   -3.0799   -0.3683 C   0  0  0  0  0  0  0  0  0  0  0  0
   -4.1720   -4.1789    0.4754 C   0  0  0  0  0  0  0  0  0  0  0  0
   -3.1734   -4.0828    1.4602 C   0  0  0  0  0  0  0  0  0  0  0  0
   -2.4288   -2.9083    1.6086 C   0  0  0  0  0  0  0  0  0  0  0  0
   -0.9233   -0.8353    1.2646 H   0  0  0  0  0  0  0  0  0  0  0  0
   -0.8947    5.4367   -0.3626 H   0  0  0  0  0  0  0  0  0  0  0  0
   -0.0734    4.7282   -1.8247 H   0  0  0  0  0  0  0  0  0  0  0  0
   -1.8680    4.6726   -1.6910 H   0  0  0  0  0  0  0  0  0  0  0  0
   -5.9856    1.1438    1.7133 H   0  0  0  0  0  0  0  0  0  0  0  0
   -5.2882    2.6331    0.9351 H   0  0  0  0  0  0  0  0  0  0  0  0
   -5.8771    1.2869   -0.0946 H   0  0  0  0  0  0  0  0  0  0  0  0
   -3.8196   -1.0706   -0.9374 H   0  0  0  0  0  0  0  0  0  0  0  0
   -5.1642   -3.1407   -1.1567 H   0  0  0  0  0  0  0  0  0  0  0  0
   -4.7616   -5.1007    0.3642 H   0  0  0  0  0  0  0  0  0  0  0  0
   -2.9741   -4.9346    2.1290 H   0  0  0  0  0  0  0  0  0  0  0  0
   -1.6590   -2.8337    2.3934 H   0  0  0  0  0  0  0  0  0  0  0  0
  1  8  2  0  0  0  0
  3 10  2  0  0  0  0
  5 18  1  0  0  0  0
  6  7  1  0  0  0  0
  7  5  2  0  0  0  0
  8  2  1  0  0  0  0
  8  6  1  0  0  0  0
  9  2  1  0  0  0  0
  9 19  1  0  0  0  0
 10  7  1  0  0  0  0
 10  4  1  0  0  0  0
 11 23  1  0  0  0  0
 11  4  1  0  0  0  0
 11 22  1  0  0  0  0
 12  5  1  0  0  0  0
 12 17  1  0  0  0  0
 13 12  2  0  0  0  0
 14 13  1  0  0  0  0
 14 15  2  0  0  0  0
 15 16  1  0  0  0  0
 16 17  2  0  0  0  0
 16 28  1  0  0  0  0
 17 29  1  0  0  0  0
 20  9  1  0  0  0  0
 21  9  1  0  0  0  0
 24 11  1  0  0  0  0
 25 13  1  0  0  0  0
 26 14  1  0  0  0  0
 27 15  1  0  0  0  0
M  END
