1
 OpenBabel05122313113D

 15 14  0  0  0  0  0  0  0  0999 V2000
   -0.8035   -0.1941   -0.0000 C   0  0  0  0  0  3  0  0  0  0  0  0
   -2.0305    0.0063   -0.0001 C   0  0  0  0  0  0  0  0  0  0  0  0
   -3.4254    0.3428    0.0001 C   0  0  0  0  0  0  0  0  0  0  0  0
   -3.6809    1.7563    0.0015 C   0  0  0  0  0  0  0  0  0  0  0  0
   -3.8255    2.9751    0.0027 C   0  0  0  0  0  0  0  0  0  0  0  0
   -4.0011    4.0424    0.0038 H   0  0  0  0  0  0  0  0  0  0  0  0
   -4.4374   -0.5967   -0.0010 C   0  0  0  0  0  0  0  0  0  0  0  0
   -4.1359   -2.0642   -0.0025 C   0  0  0  0  0  0  0  0  0  0  0  0
   -3.0480   -2.2675   -0.0026 H   0  0  0  0  0  0  0  0  0  0  0  0
   -4.5907   -2.5558   -0.8899 H   0  0  0  0  0  0  0  0  0  0  0  0
   -4.5908   -2.5576    0.8837 H   0  0  0  0  0  0  0  0  0  0  0  0
   -5.8811   -0.2019   -0.0008 C   0  0  0  0  0  0  0  0  0  0  0  0
   -6.0204    0.8946    0.0002 H   0  0  0  0  0  0  0  0  0  0  0  0
   -6.4003   -0.6265    0.8858 H   0  0  0  0  0  0  0  0  0  0  0  0
   -6.4001   -0.6249   -0.8883 H   0  0  0  0  0  0  0  0  0  0  0  0
  2  1  3  0  0  0  0
  2  3  1  0  0  0  0
  3  4  1  0  0  0  0
  4  5  3  0  0  0  0
  5  6  1  0  0  0  0
  7 12  1  0  0  0  0
  7  3  2  0  0  0  0
  8  7  1  0  0  0  0
  8 11  1  0  0  0  0
  9  8  1  0  0  0  0
 10  8  1  0  0  0  0
 12 13  1  0  0  0  0
 12 14  1  0  0  0  0
 15 12  1  0  0  0  0
M  END
