5
 OpenBabel05122313113D

 14 15  0  0  1  0  0  0  0  0999 V2000
   -3.0031   -0.4574    1.6822 O   0  0  0  0  0  0  0  0  0  0  0  0
   -3.0043   -0.4775   -1.6761 O   0  0  0  0  0  0  0  0  0  0  0  0
   -2.3407    0.0218    0.8004 C   0  0  0  0  0  0  0  0  0  0  0  0
   -2.3414    0.0117   -0.8005 C   0  0  0  0  0  0  0  0  0  0  0  0
   -1.1359    0.9446   -0.7238 C   0  0  2  0  0  3  0  0  0  0  0  0
   -0.0643    1.4943   -1.4781 C   0  0  0  0  0  0  0  0  0  0  0  0
    1.0097    2.0550   -0.7323 C   0  0  0  0  0  0  0  0  0  0  0  0
    1.0094    2.0658    0.7063 C   0  0  0  0  0  3  0  0  0  0  0  0
   -0.0642    1.5124    1.4577 C   0  0  0  0  0  0  0  0  0  0  0  0
   -1.1373    0.9548    0.7110 C   0  0  0  0  0  0  0  0  0  0  0  0
   -0.0306    1.4437   -2.5751 H   0  0  0  0  0  0  0  0  0  0  0  0
    1.8933    2.4391   -1.2620 H   0  0  0  0  0  0  0  0  0  0  0  0
    1.8924    2.4572    1.2313 H   0  0  0  0  0  0  0  0  0  0  0  0
   -0.0309    1.4754    2.5554 H   0  0  0  0  0  0  0  0  0  0  0  0
  2  4  2  0  0  0  0
  3  1  2  0  0  0  0
  4  5  1  0  0  0  0
  4  3  1  0  0  0  0
  5  6  1  1  0  0  0
  5 10  1  0  0  0  0
  6  7  2  0  0  0  0
  7  8  1  0  0  0  0
  8 13  1  0  0  0  0
  8  9  1  0  0  0  0
  9 14  1  0  0  0  0
 10  3  1  0  0  0  0
 10  9  2  0  0  0  0
 11  6  1  0  0  0  0
 12  7  1  0  0  0  0
M  END
