1
 OpenBabel05122313113D

 35 36  0  0  1  0  0  0  0  0999 V2000
    0.1800   -0.6176    0.0367 C   0  0  0  0  0  2  0  0  0  0  0  0
    1.3901    0.1658   -0.0955 C   0  0  0  0  0  0  0  0  0  0  0  0
    1.6050    1.6233   -0.1332 C   0  0  0  0  0  0  0  0  0  0  0  0
    2.2585    2.2660   -1.2097 C   0  0  0  0  0  0  0  0  0  0  0  0
    2.6028    1.6630   -2.0648 H   0  0  0  0  0  0  0  0  0  0  0  0
    2.4419    3.6578   -1.2135 C   0  0  0  0  0  0  0  0  0  0  0  0
    2.9503    4.1399   -2.0626 H   0  0  0  0  0  0  0  0  0  0  0  0
    1.9674    4.4350   -0.1456 C   0  0  0  0  0  0  0  0  0  0  0  0
    2.1092    5.5263   -0.1495 H   0  0  0  0  0  0  0  0  0  0  0  0
    1.3065    3.8115    0.9268 C   0  0  0  0  0  0  0  0  0  0  0  0
    0.9340    4.4145    1.7694 H   0  0  0  0  0  0  0  0  0  0  0  0
    1.1249    2.4216    0.9324 C   0  0  0  0  0  0  0  0  0  0  0  0
    0.6102    1.9277    1.7708 H   0  0  0  0  0  0  0  0  0  0  0  0
    2.2200   -0.9706   -0.0208 C   0  0  0  0  0  0  0  0  0  0  0  0
    3.5443   -1.2064    0.0335 N   0  0  0  0  0  0  0  0  0  0  0  0
    4.0649   -2.5634    0.2123 C   0  0  0  0  0  0  0  0  0  0  0  0
    3.2489   -3.1942    0.6144 H   0  0  0  0  0  0  0  0  0  0  0  0
    4.8504   -2.5314    0.9985 H   0  0  0  0  0  0  0  0  0  0  0  0
    4.6227   -3.1698   -1.0757 C   0  0  0  0  0  0  0  0  0  0  0  0
    5.0275   -4.1834   -0.8821 H   0  0  0  0  0  0  0  0  0  0  0  0
    5.4447   -2.5544   -1.4946 H   0  0  0  0  0  0  0  0  0  0  0  0
    3.8304   -3.2533   -1.8457 H   0  0  0  0  0  0  0  0  0  0  0  0
    4.5065   -0.1002    0.0438 C   0  0  0  0  0  0  0  0  0  0  0  0
    4.1791    0.6601   -0.6928 H   0  0  0  0  0  0  0  0  0  0  0  0
    5.4774   -0.4966   -0.3179 H   0  0  0  0  0  0  0  0  0  0  0  0
    4.6616    0.5426    1.4221 C   0  0  0  0  0  0  0  0  0  0  0  0
    5.4180    1.3519    1.3853 H   0  0  0  0  0  0  0  0  0  0  0  0
    4.9865   -0.1972    2.1817 H   0  0  0  0  0  0  0  0  0  0  0  0
    3.7034    0.9883    1.7550 H   0  0  0  0  0  0  0  0  0  0  0  0
    1.0349   -1.9248    0.0970 C   0  0  2  0  0  0  0  0  0  0  0  0
    0.9627   -2.4045    1.1004 H   0  0  0  0  0  0  0  0  0  0  0  0
    0.7898   -2.9495   -1.0067 C   0  0  0  0  0  0  0  0  0  0  0  0
   -0.2206   -3.3875   -0.8926 H   0  0  0  0  0  0  0  0  0  0  0  0
    1.5239   -3.7815   -0.9762 H   0  0  0  0  0  0  0  0  0  0  0  0
    0.8474   -2.4701   -2.0055 H   0  0  0  0  0  0  0  0  0  0  0  0
  1 30  1  0  0  0  0
  2 14  2  0  0  0  0
  2  1  1  0  0  0  0
  3  2  1  0  0  0  0
  3 12  1  0  0  0  0
  4  3  2  0  0  0  0
  5  4  1  0  0  0  0
  6  4  1  0  0  0  0
  6  8  2  0  0  0  0
  7  6  1  0  0  0  0
  8 10  1  0  0  0  0
  9  8  1  0  0  0  0
 10 12  2  0  0  0  0
 10 11  1  0  0  0  0
 12 13  1  0  0  0  0
 14 15  1  0  0  0  0
 14 30  1  0  0  0  0
 15 23  1  0  0  0  0
 15 16  1  0  0  0  0
 16 17  1  0  0  0  0
 16 18  1  0  0  0  0
 19 20  1  0  0  0  0
 19 16  1  0  0  0  0
 21 19  1  0  0  0  0
 22 19  1  0  0  0  0
 23 26  1  0  0  0  0
 24 23  1  0  0  0  0
 25 23  1  0  0  0  0
 26 29  1  0  0  0  0
 26 28  1  0  0  0  0
 27 26  1  0  0  0  0
 30 31  1  1  0  0  0
 32 34  1  0  0  0  0
 32 33  1  0  0  0  0
 32 30  1  0  0  0  0
 35 32  1  0  0  0  0
M  END
