1
 OpenBabel05122313113D

 37 36  0  0  0  0  0  0  0  0999 V2000
    0.0984    0.8691    0.2078 C   0  0  0  0  0  2  0  0  0  0  0  0
    0.3089    2.1487   -0.1725 N   0  0  0  0  0  0  0  0  0  0  0  0
   -0.7196    2.9268   -0.8785 C   0  0  0  0  0  0  0  0  0  0  0  0
   -1.2385    2.2622   -1.5905 H   0  0  0  0  0  0  0  0  0  0  0  0
   -0.2004    3.7034   -1.4761 H   0  0  0  0  0  0  0  0  0  0  0  0
   -1.7198    3.5723    0.0789 C   0  0  0  0  0  0  0  0  0  0  0  0
   -2.4879    4.1312   -0.4904 H   0  0  0  0  0  0  0  0  0  0  0  0
   -1.2217    4.2800    0.7733 H   0  0  0  0  0  0  0  0  0  0  0  0
   -2.2337    2.7977    0.6792 H   0  0  0  0  0  0  0  0  0  0  0  0
    1.5407    2.9041    0.1055 C   0  0  0  0  0  0  0  0  0  0  0  0
    2.0909    2.3989    0.9200 H   0  0  0  0  0  0  0  0  0  0  0  0
    1.2511    3.9100    0.4790 H   0  0  0  0  0  0  0  0  0  0  0  0
    2.4391    3.0285   -1.1254 C   0  0  0  0  0  0  0  0  0  0  0  0
    3.3534    3.6051   -0.8803 H   0  0  0  0  0  0  0  0  0  0  0  0
    1.9284    3.5481   -1.9607 H   0  0  0  0  0  0  0  0  0  0  0  0
    2.7444    2.0257   -1.4843 H   0  0  0  0  0  0  0  0  0  0  0  0
    1.1902    0.2854    1.0819 C   0  0  0  0  0  0  0  0  0  0  0  0
    1.0107    0.4774    2.5794 C   0  0  0  0  0  0  0  0  0  0  0  0
    0.8128    1.5440    2.8174 H   0  0  0  0  0  0  0  0  0  0  0  0
    1.9092    0.1473    3.1342 H   0  0  0  0  0  0  0  0  0  0  0  0
    0.1318   -0.0922    2.9439 H   0  0  0  0  0  0  0  0  0  0  0  0
    2.2240   -0.3919    0.5979 C   0  0  0  0  0  0  0  0  0  0  0  0
    3.2122   -1.1578    0.1732 C   0  0  0  0  0  0  0  0  0  0  0  0
    3.0057   -2.2380    0.0255 H   0  0  0  0  0  0  0  0  0  0  0  0
    4.6434   -0.7309   -0.1567 C   0  0  0  0  0  0  0  0  0  0  0  0
    4.9719    0.6368    0.4609 C   0  0  0  0  0  0  0  0  0  0  0  0
    6.0126    0.9339    0.2184 H   0  0  0  0  0  0  0  0  0  0  0  0
    4.8678    0.6082    1.5642 H   0  0  0  0  0  0  0  0  0  0  0  0
    4.2957    1.4241    0.0776 H   0  0  0  0  0  0  0  0  0  0  0  0
    5.6021   -1.7970    0.4109 C   0  0  0  0  0  0  0  0  0  0  0  0
    6.6553   -1.5423    0.1730 H   0  0  0  0  0  0  0  0  0  0  0  0
    5.3897   -2.7977   -0.0192 H   0  0  0  0  0  0  0  0  0  0  0  0
    5.5071   -1.8731    1.5131 H   0  0  0  0  0  0  0  0  0  0  0  0
    4.7945   -0.6699   -1.6922 C   0  0  0  0  0  0  0  0  0  0  0  0
    5.8392   -0.4235   -1.9760 H   0  0  0  0  0  0  0  0  0  0  0  0
    4.1264    0.1020   -2.1248 H   0  0  0  0  0  0  0  0  0  0  0  0
    4.5354   -1.6417   -2.1601 H   0  0  0  0  0  0  0  0  0  0  0  0
  1 17  1  0  0  0  0
  2 10  1  0  0  0  0
  2  1  1  0  0  0  0
  3  2  1  0  0  0  0
  3  6  1  0  0  0  0
  4  3  1  0  0  0  0
  5  3  1  0  0  0  0
  6  9  1  0  0  0  0
  6  8  1  0  0  0  0
  7  6  1  0  0  0  0
 10 12  1  0  0  0  0
 10 11  1  0  0  0  0
 13 14  1  0  0  0  0
 13 10  1  0  0  0  0
 15 13  1  0  0  0  0
 16 13  1  0  0  0  0
 17 18  1  0  0  0  0
 18 19  1  0  0  0  0
 18 21  1  0  0  0  0
 18 20  1  0  0  0  0
 22 17  2  0  0  0  0
 23 22  2  0  0  0  0
 24 23  1  0  0  0  0
 25 23  1  0  0  0  0
 25 30  1  0  0  0  0
 25 26  1  0  0  0  0
 26 28  1  0  0  0  0
 27 26  1  0  0  0  0
 29 26  1  0  0  0  0
 30 33  1  0  0  0  0
 31 30  1  0  0  0  0
 32 30  1  0  0  0  0
 34 25  1  0  0  0  0
 35 34  1  0  0  0  0
 36 34  1  0  0  0  0
 37 34  1  0  0  0  0
M  END
