16
 OpenBabel05122313113D

 62 66  0  0  1  0  0  0  0  0999 V2000
    1.9752    1.9248   -0.3246 O   0  0  0  0  0  0  0  0  0  0  0  0
    1.2218   -0.0398    1.1688 O   0  0  0  0  0  0  0  0  0  0  0  0
   -0.9231   -1.5783   -0.5495 C   0  0  2  0  0  3  0  0  0  0  0  0
   -1.5221   -1.9925   -2.9447 O   0  0  0  0  0  0  0  0  0  0  0  0
    1.1064    4.1104   -0.7914 C   0  0  0  0  0  0  0  0  0  0  0  0
    0.3388    5.5248    1.0348 C   0  0  0  0  0  0  0  0  0  0  0  0
    1.2233    3.3079    1.5177 C   0  0  0  0  0  0  0  0  0  0  0  0
    4.5695    0.2600   -1.2140 C   0  0  0  0  0  0  0  0  0  0  0  0
    6.1913   -0.8782    0.2008 C   0  0  0  0  0  0  0  0  0  0  0  0
    3.8326   -1.4785    0.3446 C   0  0  0  0  0  0  0  0  0  0  0  0
   -1.1282   -0.5719    1.7943 C   0  0  0  0  0  0  0  0  0  0  0  0
   -1.5440   -0.6345    4.2374 C   0  0  0  0  0  0  0  0  0  0  0  0
    1.0947    0.5170   -0.3900 P   0  0  0  0  0  0  0  0  0  0  0  0
    2.2502   -0.3760   -1.1246 O   0  0  0  0  0  0  0  0  0  0  0  0
   -1.6775   -0.7891    0.4143 C   0  0  2  0  0  3  0  0  0  0  0  0
   -1.2894   -1.3999   -1.9322 C   0  0  0  0  0  3  0  0  0  0  0  0
    1.4264    3.1125    0.1424 C   0  0  0  0  0  0  0  0  0  0  0  0
    0.5622    5.3195   -0.3365 C   0  0  0  0  0  0  0  0  0  0  0  0
    0.6723    4.5200    1.9571 C   0  0  0  0  0  0  0  0  0  0  0  0
    3.5562   -0.5225   -0.6437 C   0  0  0  0  0  0  0  0  0  0  0  0
    5.8926    0.0750   -0.7867 C   0  0  0  0  0  0  0  0  0  0  0  0
    5.1611   -1.6501    0.7622 C   0  0  0  0  0  0  0  0  0  0  0  0
    0.2170   -0.2192    2.1018 C   0  0  0  0  0  0  0  0  0  0  0  0
   -1.9759   -0.7764    2.9147 C   0  0  0  0  0  0  0  0  0  0  0  0
   -0.2139   -0.2774    4.5016 C   0  0  0  0  0  0  0  0  0  0  0  0
    0.6577   -0.0725    3.4277 C   0  0  0  0  0  0  0  0  0  0  0  0
   -3.7981   -1.9799   -0.2726 C   0  0  0  0  0  0  0  0  0  0  0  0
   -5.9995   -0.9896    0.0328 C   0  0  0  0  0  0  0  0  0  0  0  0
   -4.0070    0.2001    0.7685 C   0  0  0  0  0  0  0  0  0  0  0  0
    1.0142   -3.0289   -1.2883 C   0  0  0  0  0  0  0  0  0  0  0  0
    1.9438   -4.7204    0.1930 C   0  0  0  0  0  0  0  0  0  0  0  0
    0.1588   -3.2581    0.9739 C   0  0  0  0  0  0  0  0  0  0  0  0
   -3.1787   -0.8485    0.3022 C   0  0  0  0  0  0  0  0  0  0  0  0
   -5.1933   -2.0434   -0.4173 C   0  0  0  0  0  0  0  0  0  0  0  0
   -5.3973    0.1303    0.6340 C   0  0  0  0  0  0  0  0  0  0  0  0
    0.1271   -2.5941   -0.2747 C   0  0  0  0  0  0  0  0  0  0  0  0
    1.9085   -4.0792   -1.0564 C   0  0  0  0  0  0  0  0  0  0  0  0
    1.0627   -4.3054    1.2032 C   0  0  0  0  0  0  0  0  0  0  0  0
    1.2768    3.9158   -1.8600 H   0  0  0  0  0  0  0  0  0  0  0  0
    0.3014    6.1042   -1.0625 H   0  0  0  0  0  0  0  0  0  0  0  0
   -0.0980    6.4714    1.3857 H   0  0  0  0  0  0  0  0  0  0  0  0
    0.4995    4.6772    3.0324 H   0  0  0  0  0  0  0  0  0  0  0  0
    1.4896    2.5103    2.2249 H   0  0  0  0  0  0  0  0  0  0  0  0
    4.3044    1.0012   -1.9804 H   0  0  0  0  0  0  0  0  0  0  0  0
    6.6955    0.6835   -1.2295 H   0  0  0  0  0  0  0  0  0  0  0  0
    7.2306   -1.0202    0.5328 H   0  0  0  0  0  0  0  0  0  0  0  0
    5.3900   -2.4003    1.5342 H   0  0  0  0  0  0  0  0  0  0  0  0
    3.0151   -2.0765    0.7680 H   0  0  0  0  0  0  0  0  0  0  0  0
   -3.0143   -1.0785    2.7251 H   0  0  0  0  0  0  0  0  0  0  0  0
   -2.2505   -0.8124    5.0614 H   0  0  0  0  0  0  0  0  0  0  0  0
    0.1476   -0.1618    5.5341 H   0  0  0  0  0  0  0  0  0  0  0  0
    1.7140    0.1905    3.5834 H   0  0  0  0  0  0  0  0  0  0  0  0
   -3.1767   -2.8239   -0.6068 H   0  0  0  0  0  0  0  0  0  0  0  0
   -5.6499   -2.9320   -0.8789 H   0  0  0  0  0  0  0  0  0  0  0  0
   -7.0929   -1.0382   -0.0798 H   0  0  0  0  0  0  0  0  0  0  0  0
   -6.0194    0.9647    0.9923 H   0  0  0  0  0  0  0  0  0  0  0  0
   -3.5490    1.0884    1.2268 H   0  0  0  0  0  0  0  0  0  0  0  0
    1.0167   -2.5248   -2.2640 H   0  0  0  0  0  0  0  0  0  0  0  0
    2.5932   -4.3928   -1.8585 H   0  0  0  0  0  0  0  0  0  0  0  0
    2.6528   -5.5417    0.3760 H   0  0  0  0  0  0  0  0  0  0  0  0
    1.0665   -4.8079    2.1824 H   0  0  0  0  0  0  0  0  0  0  0  0
   -0.5434   -2.9675    1.7660 H   0  0  0  0  0  0  0  0  0  0  0  0
  1 17  1  0  0  0  0
  2 23  1  0  0  0  0
  3 16  1  1  0  0  0
  3 36  1  0  0  0  0
  4 16  2  0  0  0  0
  5 18  2  0  0  0  0
  5 17  1  0  0  0  0
  6 41  1  0  0  0  0
  6 19  2  0  0  0  0
  7 19  1  0  0  0  0
  7 43  1  0  0  0  0
  8 21  2  0  0  0  0
  8 20  1  0  0  0  0
  9 46  1  0  0  0  0
  9 22  2  0  0  0  0
 10 22  1  0  0  0  0
 10 48  1  0  0  0  0
 11 23  2  0  0  0  0
 11 24  1  0  0  0  0
 12 25  1  0  0  0  0
 12 50  1  0  0  0  0
 13  1  1  0  0  0  0
 13  2  1  0  0  0  0
 14 20  1  0  0  0  0
 14 13  1  0  0  0  0
 15  3  1  1  0  0  0
 15 11  1  0  0  0  0
 17  7  2  0  0  0  0
 18  6  1  0  0  0  0
 19 42  1  0  0  0  0
 20 10  2  0  0  0  0
 21  9  1  0  0  0  0
 22 47  1  0  0  0  0
 23 26  1  0  0  0  0
 24 12  2  0  0  0  0
 25 51  1  0  0  0  0
 26 52  1  0  0  0  0
 26 25  2  0  0  0  0
 27 33  1  0  0  0  0
 28 35  2  0  0  0  0
 29 57  1  0  0  0  0
 30 37  2  0  0  0  0
 30 36  1  0  0  0  0
 31 60  1  0  0  0  0
 31 38  2  0  0  0  0
 32 38  1  0  0  0  0
 32 62  1  0  0  0  0
 33 15  1  0  0  0  0
 33 29  2  0  0  0  0
 34 27  2  0  0  0  0
 34 28  1  0  0  0  0
 35 29  1  0  0  0  0
 35 56  1  0  0  0  0
 36 32  2  0  0  0  0
 37 31  1  0  0  0  0
 38 61  1  0  0  0  0
 39  5  1  0  0  0  0
 40 18  1  0  0  0  0
 44  8  1  0  0  0  0
 45 21  1  0  0  0  0
 49 24  1  0  0  0  0
 53 27  1  0  0  0  0
 54 34  1  0  0  0  0
 55 28  1  0  0  0  0
 58 30  1  0  0  0  0
 59 37  1  0  0  0  0
M  END
