2
 OpenBabel05122313113D

 14 14  0  0  0  0  0  0  0  0999 V2000
   -2.3292    0.9359    0.0977 N   0  0  0  0  0  0  0  0  0  0  0  0
   -1.4081   -0.1173    0.2031 C   0  0  0  0  0  2  0  0  0  0  0  0
   -3.6890    0.7636    0.0174 C   0  0  0  0  0  0  0  0  0  0  0  0
   -4.2716   -0.4847    0.0087 C   0  0  0  0  0  0  0  0  0  0  0  0
   -3.4107   -1.6084    0.0857 C   0  0  0  0  0  0  0  0  0  0  0  0
   -2.0432   -1.4078    0.1830 C   0  0  0  0  0  0  0  0  0  0  0  0
   -1.8473    2.3218    0.0903 C   0  0  0  0  0  0  0  0  0  0  0  0
   -4.2846    1.6856   -0.0416 H   0  0  0  0  0  0  0  0  0  0  0  0
   -5.3634   -0.5801   -0.0583 H   0  0  0  0  0  0  0  0  0  0  0  0
   -3.8255   -2.6283    0.0766 H   0  0  0  0  0  0  0  0  0  0  0  0
   -1.3793   -2.2796    0.2604 H   0  0  0  0  0  0  0  0  0  0  0  0
   -2.6326    2.9832   -0.3195 H   0  0  0  0  0  0  0  0  0  0  0  0
   -1.5833    2.6449    1.1148 H   0  0  0  0  0  0  0  0  0  0  0  0
   -0.9315    2.3763   -0.5222 H   0  0  0  0  0  0  0  0  0  0  0  0
  1  2  1  0  0  0  0
  3  1  1  0  0  0  0
  4  3  2  0  0  0  0
  4  5  1  0  0  0  0
  5  6  2  0  0  0  0
  6  2  1  0  0  0  0
  6 11  1  0  0  0  0
  7  1  1  0  0  0  0
  7 13  1  0  0  0  0
  8  3  1  0  0  0  0
  9  4  1  0  0  0  0
 10  5  1  0  0  0  0
 12  7  1  0  0  0  0
 14  7  1  0  0  0  0
M  END
