1
 OpenBabel05122313113D

 15 15  0  0  0  0  0  0  0  0999 V2000
    0.2647    0.0001   -0.0005 C   0  0  0  0  0  1  0  0  0  0  0  0
   -0.9212    0.0001   -0.0003 N   0  0  0  0  0  2  0  0  0  0  0  0
   -2.2950    0.0001   -0.0002 C   0  0  0  0  0  0  0  0  0  0  0  0
   -2.9968   -1.2266   -0.0001 C   0  0  0  0  0  0  0  0  0  0  0  0
   -4.3911   -1.2213    0.0000 C   0  0  0  0  0  0  0  0  0  0  0  0
   -5.1133   -0.0000    0.0001 C   0  0  0  0  0  0  0  0  0  0  0  0
   -6.5401   -0.0001    0.0002 C   0  0  0  0  0  0  0  0  0  0  0  0
   -7.7657   -0.0001    0.0003 C   0  0  0  0  0  0  0  0  0  0  0  0
   -2.4346   -2.1708   -0.0001 H   0  0  0  0  0  0  0  0  0  0  0  0
   -4.9438   -2.1712    0.0001 H   0  0  0  0  0  0  0  0  0  0  0  0
   -8.8471   -0.0001    0.0008 H   0  0  0  0  0  0  0  0  0  0  0  0
   -2.9969    1.2267   -0.0001 C   0  0  0  0  0  0  0  0  0  0  0  0
   -4.3912    1.2213    0.0000 C   0  0  0  0  0  0  0  0  0  0  0  0
   -2.4348    2.1709   -0.0001 H   0  0  0  0  0  0  0  0  0  0  0  0
   -4.9440    2.1711    0.0001 H   0  0  0  0  0  0  0  0  0  0  0  0
  1  2  1  0  0  0  0
  2  3  1  0  0  0  0
  3  4  2  0  0  0  0
  3 12  1  0  0  0  0
  4  5  1  0  0  0  0
  5 10  1  0  0  0  0
  5  6  2  0  0  0  0
  6  7  1  0  0  0  0
  7  8  3  0  0  0  0
  8 11  1  0  0  0  0
  9  4  1  0  0  0  0
 12 13  2  0  0  0  0
 13 15  1  0  0  0  0
 13  6  1  0  0  0  0
 14 12  1  0  0  0  0
M  END
