1
 OpenBabel05122313113D

 37 39  0  0  1  0  0  0  0  0999 V2000
    1.6322    0.2931   -0.4766 C   0  0  0  0  0  2  0  0  0  0  0  0
    1.3508    1.5320   -0.0092 N   0  0  0  0  0  0  0  0  0  0  0  0
    2.2242    2.5617   -0.5985 C   0  0  0  0  0  0  0  0  0  0  0  0
    2.7046    3.1691    0.1964 H   0  0  0  0  0  0  0  0  0  0  0  0
    1.6357    3.2466   -1.2451 H   0  0  0  0  0  0  0  0  0  0  0  0
    3.2462    1.7212   -1.3936 C   0  0  2  0  0  0  0  0  0  0  0  0
    3.3187    2.0586   -2.4511 H   0  0  0  0  0  0  0  0  0  0  0  0
    2.6335    0.3737   -1.3645 N   0  0  1  0  0  0  0  0  0  0  0  0
    3.3610   -0.7330   -1.9731 C   0  0  0  0  0  0  0  0  0  0  0  0
    2.8104   -1.6642   -1.7394 H   0  0  0  0  0  0  0  0  0  0  0  0
    3.3527   -0.5832   -3.0770 H   0  0  0  0  0  0  0  0  0  0  0  0
    4.7994   -0.7922   -1.4437 C   0  0  0  0  0  0  0  0  0  0  0  0
    5.3671   -1.5495   -2.0221 H   0  0  0  0  0  0  0  0  0  0  0  0
    4.7465   -1.1427   -0.3920 H   0  0  0  0  0  0  0  0  0  0  0  0
    5.4871    0.5779   -1.5111 C   0  0  0  0  0  0  0  0  0  0  0  0
    6.5009    0.5202   -1.0652 H   0  0  0  0  0  0  0  0  0  0  0  0
    5.6299    0.8835   -2.5731 H   0  0  0  0  0  0  0  0  0  0  0  0
    4.6538    1.6449   -0.7885 C   0  0  0  0  0  0  0  0  0  0  0  0
    4.5546    1.3808    0.2872 H   0  0  0  0  0  0  0  0  0  0  0  0
    5.1341    2.6443   -0.8464 H   0  0  0  0  0  0  0  0  0  0  0  0
    0.2697    1.8468    0.8781 C   0  0  0  0  0  0  0  0  0  0  0  0
    0.4654    1.6914    2.2726 C   0  0  0  0  0  0  0  0  0  0  0  0
   -0.6244    1.9723    3.1192 C   0  0  0  0  0  0  0  0  0  0  0  0
   -0.4990    1.8452    4.2053 H   0  0  0  0  0  0  0  0  0  0  0  0
   -1.8518    2.4052    2.5999 C   0  0  0  0  0  0  0  0  0  0  0  0
   -2.6931    2.6097    3.2793 H   0  0  0  0  0  0  0  0  0  0  0  0
   -2.0122    2.5801    1.2190 C   0  0  0  0  0  0  0  0  0  0  0  0
   -2.9785    2.9156    0.8117 H   0  0  0  0  0  0  0  0  0  0  0  0
   -0.9522    2.3112    0.3330 C   0  0  0  0  0  0  0  0  0  0  0  0
    1.7889    1.2405    2.8255 C   0  0  0  0  0  0  0  0  0  0  0  0
    1.7929    1.2920    3.9303 H   0  0  0  0  0  0  0  0  0  0  0  0
    2.6205    1.8722    2.4487 H   0  0  0  0  0  0  0  0  0  0  0  0
    2.0309    0.1975    2.5220 H   0  0  0  0  0  0  0  0  0  0  0  0
   -1.1254    2.5190   -1.1498 C   0  0  0  0  0  0  0  0  0  0  0  0
   -2.1948    2.4674   -1.4310 H   0  0  0  0  0  0  0  0  0  0  0  0
   -0.5735    1.7627   -1.7411 H   0  0  0  0  0  0  0  0  0  0  0  0
   -0.7547    3.5190   -1.4636 H   0  0  0  0  0  0  0  0  0  0  0  0
  1  2  1  0  0  0  0
  2 21  1  0  0  0  0
  3  2  1  0  0  0  0
  3  4  1  0  0  0  0
  5  3  1  0  0  0  0
  6  7  1  6  0  0  0
  6  8  1  0  0  0  0
  6 18  1  0  0  0  0
  6  3  1  0  0  0  0
  8  1  1  1  0  0  0
  9 10  1  0  0  0  0
  9 12  1  0  0  0  0
  9  8  1  0  0  0  0
 11  9  1  0  0  0  0
 12 14  1  0  0  0  0
 13 12  1  0  0  0  0
 15 12  1  0  0  0  0
 15 16  1  0  0  0  0
 15 18  1  0  0  0  0
 17 15  1  0  0  0  0
 18 19  1  0  0  0  0
 20 18  1  0  0  0  0
 21 22  1  0  0  0  0
 22 30  1  0  0  0  0
 22 23  2  0  0  0  0
 23 24  1  0  0  0  0
 25 23  1  0  0  0  0
 25 26  1  0  0  0  0
 27 25  2  0  0  0  0
 28 27  1  0  0  0  0
 29 21  2  0  0  0  0
 29 27  1  0  0  0  0
 30 31  1  0  0  0  0
 32 30  1  0  0  0  0
 33 30  1  0  0  0  0
 34 29  1  0  0  0  0
 35 34  1  0  0  0  0
 36 34  1  0  0  0  0
 37 34  1  0  0  0  0
M  END
