2
 OpenBabel05122313113D

 25 27  0  0  0  0  0  0  0  0999 V2000
   -0.4484    2.0852    0.0167 N   0  0  0  0  0  0  0  0  0  0  0  0
   -0.0122    0.7921    0.0205 C   0  0  0  0  0  2  0  0  0  0  0  0
    1.3534    0.9639    0.0446 N   0  0  0  0  0  0  0  0  0  0  0  0
    0.6220    2.9459    0.0142 C   0  0  0  0  0  0  0  0  0  0  0  0
    1.7541    2.2884    0.0330 N   0  0  0  0  0  0  0  0  0  0  0  0
    0.1575    4.3665   -0.0412 C   0  0  0  0  0  0  0  0  0  0  0  0
    0.2930    4.7673   -1.0690 H   0  0  0  0  0  0  0  0  0  0  0  0
    0.7161    5.0304    0.6453 H   0  0  0  0  0  0  0  0  0  0  0  0
   -1.3474    4.2147    0.3318 C   0  0  0  0  0  0  0  0  0  0  0  0
   -1.4698    4.3544    1.4244 H   0  0  0  0  0  0  0  0  0  0  0  0
   -1.9889    4.9606   -0.1723 H   0  0  0  0  0  0  0  0  0  0  0  0
   -1.7410    2.7607   -0.0437 C   0  0  0  0  0  0  0  0  0  0  0  0
   -2.4586    2.2917    0.6554 H   0  0  0  0  0  0  0  0  0  0  0  0
   -2.1548    2.6724   -1.0702 H   0  0  0  0  0  0  0  0  0  0  0  0
    2.3629   -0.0490    0.0606 C   0  0  0  0  0  0  0  0  0  0  0  0
    2.1043   -1.3134    0.6177 C   0  0  0  0  0  0  0  0  0  0  0  0
    1.1199   -1.5322    1.0561 H   0  0  0  0  0  0  0  0  0  0  0  0
    3.1119   -2.2875    0.6012 C   0  0  0  0  0  0  0  0  0  0  0  0
    2.9048   -3.2781    1.0322 H   0  0  0  0  0  0  0  0  0  0  0  0
    4.3718   -2.0026    0.0526 C   0  0  0  0  0  0  0  0  0  0  0  0
    5.1585   -2.7717    0.0459 H   0  0  0  0  0  0  0  0  0  0  0  0
    4.6243   -0.7297   -0.4836 C   0  0  0  0  0  0  0  0  0  0  0  0
    5.6098   -0.4956   -0.9133 H   0  0  0  0  0  0  0  0  0  0  0  0
    3.6244    0.2511   -0.4848 C   0  0  0  0  0  0  0  0  0  0  0  0
    3.8036    1.2517   -0.8993 H   0  0  0  0  0  0  0  0  0  0  0  0
  1  2  1  0  0  0  0
  2  3  1  0  0  0  0
  3 15  1  0  0  0  0
  4  1  1  0  0  0  0
  4  5  2  0  0  0  0
  5  3  1  0  0  0  0
  6  4  1  0  0  0  0
  6  9  1  0  0  0  0
  6  8  1  0  0  0  0
  7  6  1  0  0  0  0
  9 10  1  0  0  0  0
 11  9  1  0  0  0  0
 12  1  1  0  0  0  0
 12  9  1  0  0  0  0
 12 13  1  0  0  0  0
 14 12  1  0  0  0  0
 15 16  1  0  0  0  0
 16 17  1  0  0  0  0
 18 16  2  0  0  0  0
 18 19  1  0  0  0  0
 20 18  1  0  0  0  0
 21 20  1  0  0  0  0
 22 20  2  0  0  0  0
 23 22  1  0  0  0  0
 24 22  1  0  0  0  0
 24 15  2  0  0  0  0
 25 24  1  0  0  0  0
M  END
