11
 OpenBabel05122313113D

 36 37  0  0  1  0  0  0  0  0999 V2000
   -0.6238    1.8806   -0.9201 C   0  0  0  0  0  0  0  0  0  0  0  0
    0.2982    2.5369   -0.0474 C   0  0  1  0  0  3  0  0  0  0  0  0
    1.3368    3.5362   -0.4400 C   0  0  0  0  0  0  0  0  0  0  0  0
   -0.0055    2.0995    1.2689 C   0  0  0  0  0  0  0  0  0  0  0  0
   -1.1471    1.2416    1.2171 C   0  0  0  0  0  0  0  0  0  0  0  0
   -1.5518    1.1110   -0.1409 C   0  0  0  0  0  0  0  0  0  0  0  0
   -2.7027    0.2954   -0.6922 C   0  0  2  0  0  0  0  0  0  0  0  0
   -4.0614    0.7861   -0.1772 C   0  0  0  0  0  0  0  0  0  0  0  0
   -2.4423   -1.2296   -0.4789 C   0  0  2  0  0  0  0  0  0  0  0  0
   -2.8313   -1.7711    0.9010 C   0  0  0  0  0  0  0  0  0  0  0  0
   -0.9826   -1.4864   -0.7903 C   0  0  2  0  0  3  0  0  0  0  0  0
   -0.0500   -2.2375   -0.0209 C   0  0  0  0  0  3  0  0  0  0  0  0
    1.2443   -2.1566   -0.6226 C   0  0  0  0  0  0  0  0  0  0  0  0
    2.5069   -2.7697   -0.1069 C   0  0  0  0  0  0  0  0  0  0  0  0
    1.0989   -1.3645   -1.8008 C   0  0  0  0  0  0  0  0  0  0  0  0
   -0.2504   -0.9433   -1.9044 C   0  0  0  0  0  3  0  0  0  0  0  0
   -0.6530    1.9974   -2.0106 H   0  0  0  0  0  0  0  0  0  0  0  0
    1.7285    3.3344   -1.4548 H   0  0  0  0  0  0  0  0  0  0  0  0
    2.1928    3.5202    0.2599 H   0  0  0  0  0  0  0  0  0  0  0  0
    0.8956    4.5560   -0.4319 H   0  0  0  0  0  0  0  0  0  0  0  0
    0.5608    2.3531    2.1721 H   0  0  0  0  0  0  0  0  0  0  0  0
   -1.6075    0.7559    2.0836 H   0  0  0  0  0  0  0  0  0  0  0  0
   -2.6919    0.4580   -1.7907 H   0  0  0  0  0  0  0  0  0  0  0  0
   -4.1212    0.7427    0.9282 H   0  0  0  0  0  0  0  0  0  0  0  0
   -4.8892    0.1729   -0.5885 H   0  0  0  0  0  0  0  0  0  0  0  0
   -4.2340    1.8387   -0.4766 H   0  0  0  0  0  0  0  0  0  0  0  0
   -3.0590   -1.7718   -1.2327 H   0  0  0  0  0  0  0  0  0  0  0  0
   -2.2010   -1.3421    1.7052 H   0  0  0  0  0  0  0  0  0  0  0  0
   -2.6971   -2.8703    0.9339 H   0  0  0  0  0  0  0  0  0  0  0  0
   -3.8924   -1.5634    1.1354 H   0  0  0  0  0  0  0  0  0  0  0  0
   -0.2647   -2.7475    0.9230 H   0  0  0  0  0  0  0  0  0  0  0  0
    2.4906   -2.8108    0.9995 H   0  0  0  0  0  0  0  0  0  0  0  0
    3.3836   -2.1681   -0.4150 H   0  0  0  0  0  0  0  0  0  0  0  0
    2.6371   -3.8023   -0.4948 H   0  0  0  0  0  0  0  0  0  0  0  0
    1.9128   -1.0762   -2.4748 H   0  0  0  0  0  0  0  0  0  0  0  0
   -0.6653   -0.3295   -2.7110 H   0  0  0  0  0  0  0  0  0  0  0  0
  1  6  2  0  0  0  0
  1  2  1  0  0  0  0
  2  3  1  1  0  0  0
  2  4  1  0  0  0  0
  3 20  1  0  0  0  0
  3 19  1  0  0  0  0
  4 21  1  0  0  0  0
  5  4  2  0  0  0  0
  5 22  1  0  0  0  0
  6  5  1  0  0  0  0
  7 23  1  6  0  0  0
  7  9  1  0  0  0  0
  7  8  1  0  0  0  0
  7  6  1  0  0  0  0
  8 24  1  0  0  0  0
  9 27  1  6  0  0  0
  9 10  1  0  0  0  0
 10 29  1  0  0  0  0
 10 30  1  0  0  0  0
 10 28  1  0  0  0  0
 11  9  1  1  0  0  0
 11 12  1  0  0  0  0
 12 31  1  0  0  0  0
 13 14  1  0  0  0  0
 13 12  1  0  0  0  0
 14 32  1  0  0  0  0
 15 13  2  0  0  0  0
 16 15  1  0  0  0  0
 16 11  1  0  0  0  0
 17  1  1  0  0  0  0
 18  3  1  0  0  0  0
 25  8  1  0  0  0  0
 26  8  1  0  0  0  0
 33 14  1  0  0  0  0
 34 14  1  0  0  0  0
 35 15  1  0  0  0  0
 36 16  1  0  0  0  0
M  END
