6
 OpenBabel05122313113D

 15 16  0  0  0  0  0  0  0  0999 V2000
    3.3710   -0.5791    0.0015 S   0  0  0  0  0  0  0  0  0  0  0  0
    2.3780    0.0372    1.2533 C   0  0  0  0  0  0  0  0  0  0  0  0
    1.2810    0.7386    0.7331 C   0  0  0  0  0  0  0  0  0  0  0  0
    0.1682    1.3391    1.4361 C   0  0  0  0  0  0  0  0  0  0  0  0
   -0.7982    2.0758    0.7152 C   0  0  0  0  0  0  0  0  0  0  0  0
   -0.7979    2.0744   -0.7188 C   0  0  0  0  0  3  0  0  0  0  0  0
    0.1694    1.3374   -1.4383 C   0  0  0  0  0  3  0  0  0  0  0  0
    1.2816    0.7378   -0.7336 C   0  0  0  0  0  0  0  0  0  0  0  0
    2.3794    0.0361   -1.2520 C   0  0  0  0  0  0  0  0  0  0  0  0
    2.6342   -0.1281    2.3058 H   0  0  0  0  0  0  0  0  0  0  0  0
    0.1219    1.2841    2.5320 H   0  0  0  0  0  0  0  0  0  0  0  0
   -1.6147    2.5763    1.2537 H   0  0  0  0  0  0  0  0  0  0  0  0
   -1.6140    2.5740   -1.2586 H   0  0  0  0  0  0  0  0  0  0  0  0
    0.1237    1.2811   -2.5341 H   0  0  0  0  0  0  0  0  0  0  0  0
    2.6367   -0.1303   -2.3041 H   0  0  0  0  0  0  0  0  0  0  0  0
  1  2  1  0  0  0  0
  2 10  1  0  0  0  0
  3  2  2  0  0  0  0
  3  4  1  0  0  0  0
  4 11  1  0  0  0  0
  5 12  1  0  0  0  0
  5  4  2  0  0  0  0
  6  5  1  0  0  0  0
  7  8  1  0  0  0  0
  7  6  1  0  0  0  0
  8  3  1  0  0  0  0
  9  8  2  0  0  0  0
  9  1  1  0  0  0  0
 13  6  1  0  0  0  0
 14  7  1  0  0  0  0
 15  9  1  0  0  0  0
M  END
