2
 OpenBabel05122313113D

 77 81  0  0  0  0  0  0  0  0999 V2000
   -1.0019    0.7586    0.1129 N   0  0  0  0  0  0  0  0  0  0  0  0
   -1.5539   -0.4792   -0.0750 C   0  0  0  0  0  2  0  0  0  0  0  0
   -0.5028   -1.3454   -0.2251 N   0  0  0  0  0  0  0  0  0  0  0  0
    1.3969    1.7208    0.1815 C   0  0  0  0  0  0  0  0  0  0  0  0
    0.3930    0.6905    0.0642 C   0  0  0  0  0  0  0  0  0  0  0  0
    5.0881   -4.4242   -2.0145 C   0  0  0  0  0  0  0  0  0  0  0  0
    4.5171   -4.0816   -2.9010 H   0  0  0  0  0  0  0  0  0  0  0  0
    5.4015   -5.4739   -2.1904 H   0  0  0  0  0  0  0  0  0  0  0  0
    6.0056   -3.8070   -1.9450 H   0  0  0  0  0  0  0  0  0  0  0  0
    2.7641    1.2692    0.1152 C   0  0  0  0  0  0  0  0  0  0  0  0
    3.8119    2.2424    0.2386 C   0  0  0  0  0  0  0  0  0  0  0  0
    3.0941   -0.1140   -0.0816 C   0  0  0  0  0  0  0  0  0  0  0  0
    3.4938    3.6096    0.4058 C   0  0  0  0  0  0  0  0  0  0  0  0
    4.3281    4.3190    0.4922 H   0  0  0  0  0  0  0  0  0  0  0  0
    0.7149   -0.6605   -0.1390 C   0  0  0  0  0  0  0  0  0  0  0  0
    2.0791   -1.1244   -0.2297 C   0  0  0  0  0  0  0  0  0  0  0  0
    2.4720   -2.4634   -0.4483 C   0  0  0  0  0  0  0  0  0  0  0  0
    1.7043   -3.2282   -0.5738 H   0  0  0  0  0  0  0  0  0  0  0  0
    3.8202   -2.8598   -0.5095 C   0  0  0  0  0  0  0  0  0  0  0  0
    2.1675    4.0587    0.4492 C   0  0  0  0  0  0  0  0  0  0  0  0
    1.7868    5.5431    0.5936 C   0  0  0  0  0  0  0  0  0  0  0  0
    1.1415    3.0978    0.3392 C   0  0  0  0  0  0  0  0  0  0  0  0
    0.1081    3.4524    0.3679 H   0  0  0  0  0  0  0  0  0  0  0  0
    1.0095    5.9865   -0.6679 C   0  0  0  0  0  0  0  0  0  0  0  0
    1.6279    5.8620   -1.5795 H   0  0  0  0  0  0  0  0  0  0  0  0
    0.7217    7.0551   -0.5888 H   0  0  0  0  0  0  0  0  0  0  0  0
    0.0799    5.3993   -0.8080 H   0  0  0  0  0  0  0  0  0  0  0  0
   -1.8407    1.9443    0.2866 C   0  0  0  0  0  0  0  0  0  0  0  0
   -1.4092    2.5633    1.0978 H   0  0  0  0  0  0  0  0  0  0  0  0
   -2.8194    1.5710    0.6500 H   0  0  0  0  0  0  0  0  0  0  0  0
    3.0244    6.4435    0.7462 C   0  0  0  0  0  0  0  0  0  0  0  0
    3.6176    6.1789    1.6446 H   0  0  0  0  0  0  0  0  0  0  0  0
    2.7086    7.5004    0.8536 H   0  0  0  0  0  0  0  0  0  0  0  0
    3.6896    6.3838   -0.1385 H   0  0  0  0  0  0  0  0  0  0  0  0
    4.4732   -0.5144   -0.1462 C   0  0  0  0  0  0  0  0  0  0  0  0
    5.0561   -4.8075    0.4824 C   0  0  0  0  0  0  0  0  0  0  0  0
    5.3714   -5.8619    0.3422 H   0  0  0  0  0  0  0  0  0  0  0  0
    4.4603   -4.7468    1.4155 H   0  0  0  0  0  0  0  0  0  0  0  0
    5.9707   -4.1988    0.6259 H   0  0  0  0  0  0  0  0  0  0  0  0
   -0.7245   -2.7887   -0.3552 C   0  0  0  0  0  0  0  0  0  0  0  0
   -0.0954   -3.1695   -1.1827 H   0  0  0  0  0  0  0  0  0  0  0  0
   -1.7807   -2.8928   -0.6764 H   0  0  0  0  0  0  0  0  0  0  0  0
    0.8924    5.7264    1.8407 C   0  0  0  0  0  0  0  0  0  0  0  0
   -0.0479    5.1438    1.7667 H   0  0  0  0  0  0  0  0  0  0  0  0
    0.6131    6.7932    1.9610 H   0  0  0  0  0  0  0  0  0  0  0  0
    1.4196    5.4017    2.7602 H   0  0  0  0  0  0  0  0  0  0  0  0
    4.8034   -1.8696   -0.3526 C   0  0  0  0  0  0  0  0  0  0  0  0
    5.8707   -2.1366   -0.3920 H   0  0  0  0  0  0  0  0  0  0  0  0
    5.1810    1.8058    0.1808 C   0  0  0  0  0  0  0  0  0  0  0  0
    5.9738    2.5628    0.2836 H   0  0  0  0  0  0  0  0  0  0  0  0
    5.4982    0.4847   -0.0024 C   0  0  0  0  0  0  0  0  0  0  0  0
    6.5498    0.1623   -0.0485 H   0  0  0  0  0  0  0  0  0  0  0  0
   -2.0318    2.7399   -1.0055 C   0  0  0  0  0  0  0  0  0  0  0  0
   -2.5729    2.0946   -1.7307 H   0  0  0  0  0  0  0  0  0  0  0  0
   -1.0428    2.9619   -1.4632 H   0  0  0  0  0  0  0  0  0  0  0  0
    4.2303   -4.3265   -0.7326 C   0  0  0  0  0  0  0  0  0  0  0  0
   -2.8016    4.0429   -0.7751 C   0  0  0  0  0  0  0  0  0  0  0  0
   -3.7892    3.8090   -0.3209 H   0  0  0  0  0  0  0  0  0  0  0  0
   -2.2621    4.6583   -0.0188 H   0  0  0  0  0  0  0  0  0  0  0  0
   -1.4358   -3.1793    2.0891 C   0  0  0  0  0  0  0  0  0  0  0  0
   -2.4895   -3.2809    1.7497 H   0  0  0  0  0  0  0  0  0  0  0  0
   -1.3088   -2.1000    2.3220 H   0  0  0  0  0  0  0  0  0  0  0  0
   -2.9958    4.8573   -2.0538 C   0  0  0  0  0  0  0  0  0  0  0  0
   -2.0205    5.1414   -2.5019 H   0  0  0  0  0  0  0  0  0  0  0  0
   -3.5609    5.7908   -1.8611 H   0  0  0  0  0  0  0  0  0  0  0  0
   -3.5546    4.2777   -2.8171 H   0  0  0  0  0  0  0  0  0  0  0  0
   -0.4939   -3.5665    0.9450 C   0  0  0  0  0  0  0  0  0  0  0  0
   -0.6188   -4.6450    0.7037 H   0  0  0  0  0  0  0  0  0  0  0  0
    0.5614   -3.4493    1.2757 H   0  0  0  0  0  0  0  0  0  0  0  0
   -1.2024   -4.0090    3.3513 C   0  0  0  0  0  0  0  0  0  0  0  0
   -0.1645   -3.8912    3.7279 H   0  0  0  0  0  0  0  0  0  0  0  0
   -1.3638   -5.0907    3.1608 H   0  0  0  0  0  0  0  0  0  0  0  0
   -1.8904   -3.7083    4.1662 H   0  0  0  0  0  0  0  0  0  0  0  0
    3.0131   -5.2548   -0.8905 C   0  0  0  0  0  0  0  0  0  0  0  0
    2.3917   -4.9770   -1.7660 H   0  0  0  0  0  0  0  0  0  0  0  0
    2.3667   -5.2494    0.0104 H   0  0  0  0  0  0  0  0  0  0  0  0
    3.3552   -6.2973   -1.0459 H   0  0  0  0  0  0  0  0  0  0  0  0
  1 28  1  0  0  0  0
  2  1  1  0  0  0  0
  3 15  1  0  0  0  0
  3  2  1  0  0  0  0
  4 22  1  0  0  0  0
  5  1  1  0  0  0  0
  5  4  1  0  0  0  0
  6  9  1  0  0  0  0
  6 56  1  0  0  0  0
  7  6  1  0  0  0  0
  8  6  1  0  0  0  0
 10  4  2  0  0  0  0
 10 11  1  0  0  0  0
 11 13  2  0  0  0  0
 12 10  1  0  0  0  0
 13 20  1  0  0  0  0
 13 14  1  0  0  0  0
 15  5  2  0  0  0  0
 16 15  1  0  0  0  0
 16 12  2  0  0  0  0
 17 16  1  0  0  0  0
 18 17  1  0  0  0  0
 19 17  2  0  0  0  0
 19 47  1  0  0  0  0
 20 21  1  0  0  0  0
 21 31  1  0  0  0  0
 21 43  1  0  0  0  0
 22 23  1  0  0  0  0
 22 20  2  0  0  0  0
 24 26  1  0  0  0  0
 24 21  1  0  0  0  0
 25 24  1  0  0  0  0
 27 24  1  0  0  0  0
 28 30  1  0  0  0  0
 28 29  1  0  0  0  0
 31 33  1  0  0  0  0
 31 32  1  0  0  0  0
 34 31  1  0  0  0  0
 35 12  1  0  0  0  0
 35 51  1  0  0  0  0
 36 39  1  0  0  0  0
 36 38  1  0  0  0  0
 37 36  1  0  0  0  0
 40  3  1  0  0  0  0
 40 67  1  0  0  0  0
 41 40  1  0  0  0  0
 42 40  1  0  0  0  0
 43 45  1  0  0  0  0
 43 46  1  0  0  0  0
 44 43  1  0  0  0  0
 47 35  2  0  0  0  0
 48 47  1  0  0  0  0
 49 11  1  0  0  0  0
 49 50  1  0  0  0  0
 51 49  2  0  0  0  0
 52 51  1  0  0  0  0
 53 57  1  0  0  0  0
 53 28  1  0  0  0  0
 54 53  1  0  0  0  0
 55 53  1  0  0  0  0
 56 19  1  0  0  0  0
 56 36  1  0  0  0  0
 57 58  1  0  0  0  0
 57 59  1  0  0  0  0
 60 62  1  0  0  0  0
 60 70  1  0  0  0  0
 61 60  1  0  0  0  0
 63 65  1  0  0  0  0
 63 57  1  0  0  0  0
 64 63  1  0  0  0  0
 66 63  1  0  0  0  0
 67 69  1  0  0  0  0
 67 60  1  0  0  0  0
 68 67  1  0  0  0  0
 70 71  1  0  0  0  0
 70 73  1  0  0  0  0
 72 70  1  0  0  0  0
 74 56  1  0  0  0  0
 74 76  1  0  0  0  0
 75 74  1  0  0  0  0
 77 74  1  0  0  0  0
M  END
