8
 OpenBabel05122313113D

 32 32  0  0  0  0  0  0  0  0999 V2000
   -3.9667    1.2983   -0.7987 O   0  0  0  0  0  0  0  0  0  0  0  0
   -4.5566   -0.7536    0.1836 O   0  0  0  0  0  0  0  0  0  0  0  0
   -2.1601   -1.8299   -1.1507 N   0  0  0  0  0  0  0  0  0  0  0  0
   -4.8943    3.4785   -0.4698 C   0  0  0  0  0  0  0  0  0  0  0  0
   -3.9616    3.9801   -0.7985 H   0  0  0  0  0  0  0  0  0  0  0  0
   -5.4129    4.1433    0.2483 H   0  0  0  0  0  0  0  0  0  0  0  0
   -5.5453    3.3511   -1.3567 H   0  0  0  0  0  0  0  0  0  0  0  0
   -0.9384   -1.7677   -0.5441 C   0  0  0  0  0  2  0  0  0  0  0  0
   -2.5975   -3.1379   -1.2653 C   0  0  0  0  0  0  0  0  0  0  0  0
   -3.5613   -3.3978   -1.7124 H   0  0  0  0  0  0  0  0  0  0  0  0
   -1.6077   -3.9257   -0.7315 C   0  0  0  0  0  0  0  0  0  0  0  0
   -1.5343   -5.0130   -0.6332 H   0  0  0  0  0  0  0  0  0  0  0  0
   -0.6059   -3.0669   -0.2985 N   0  0  0  0  0  0  0  0  0  0  0  0
    0.6326   -3.5030    0.3356 C   0  0  0  0  0  0  0  0  0  0  0  0
    1.1611   -4.2260   -0.3158 H   0  0  0  0  0  0  0  0  0  0  0  0
    0.4193   -3.9829    1.3107 H   0  0  0  0  0  0  0  0  0  0  0  0
    1.2845   -2.6252    0.5000 H   0  0  0  0  0  0  0  0  0  0  0  0
   -2.9096   -0.6408   -1.5339 C   0  0  0  0  0  0  0  0  0  0  0  0
   -3.7260   -0.9274   -2.2220 H   0  0  0  0  0  0  0  0  0  0  0  0
   -2.2320    0.0574   -2.0598 H   0  0  0  0  0  0  0  0  0  0  0  0
   -3.5290    0.0592   -0.3165 C   0  0  0  0  0  0  0  0  0  0  0  0
   -2.7471    0.2121    0.4792 H   0  0  0  0  0  0  0  0  0  0  0  0
   -4.6007    2.1362    0.1706 C   0  0  0  0  0  0  0  0  0  0  0  0
   -3.9295    2.2521    1.0588 H   0  0  0  0  0  0  0  0  0  0  0  0
   -5.5387    1.6546    0.5265 H   0  0  0  0  0  0  0  0  0  0  0  0
   -4.6025   -0.9479    1.6050 C   0  0  0  0  0  0  0  0  0  0  0  0
   -5.6578   -1.2020    1.8302 H   0  0  0  0  0  0  0  0  0  0  0  0
   -4.3778    0.0068    2.1330 H   0  0  0  0  0  0  0  0  0  0  0  0
   -3.6709   -2.0553    2.0774 C   0  0  0  0  0  0  0  0  0  0  0  0
   -3.8993   -3.0082    1.5603 H   0  0  0  0  0  0  0  0  0  0  0  0
   -3.7872   -2.2168    3.1680 H   0  0  0  0  0  0  0  0  0  0  0  0
   -2.6070   -1.8018    1.8863 H   0  0  0  0  0  0  0  0  0  0  0  0
  1 21  1  0  0  0  0
  1 23  1  0  0  0  0
  2 26  1  0  0  0  0
  3  8  1  0  0  0  0
  4 23  1  0  0  0  0
  4  6  1  0  0  0  0
  5  4  1  0  0  0  0
  7  4  1  0  0  0  0
  8 13  1  0  0  0  0
  9  3  1  0  0  0  0
  9 11  2  0  0  0  0
 10  9  1  0  0  0  0
 11 12  1  0  0  0  0
 11 13  1  0  0  0  0
 13 14  1  0  0  0  0
 14 17  1  0  0  0  0
 14 16  1  0  0  0  0
 15 14  1  0  0  0  0
 18  3  1  0  0  0  0
 18 21  1  0  0  0  0
 19 18  1  0  0  0  0
 20 18  1  0  0  0  0
 21  2  1  0  0  0  0
 21 22  1  0  0  0  0
 23 25  1  0  0  0  0
 23 24  1  0  0  0  0
 26 27  1  0  0  0  0
 26 29  1  0  0  0  0
 26 28  1  0  0  0  0
 29 31  1  0  0  0  0
 30 29  1  0  0  0  0
 32 29  1  0  0  0  0
M  END
