1
 OpenBabel05122313113D

 49 50  0  0  1  0  0  0  0  0999 V2000
    1.7323   -0.6469   -0.0945 C   0  0  0  0  0  3  0  0  0  0  0  0
    0.5045   -0.7782    0.1732 C   0  0  0  0  0  0  0  0  0  0  0  0
   -0.7985   -0.8452    0.6169 C   0  0  1  0  0  3  0  0  0  0  0  0
   -1.1060   -1.6805    1.8976 C   0  0  0  0  0  0  0  0  0  0  0  0
   -1.9214   -0.9245    2.8055 O   0  0  0  0  0  0  0  0  0  0  0  0
   -1.3614    0.2961    3.2989 C   0  0  0  0  0  0  0  0  0  0  0  0
   -2.4577    1.0617    4.0164 C   0  0  0  0  0  0  0  0  0  0  0  0
   -1.9262   -2.9273    1.5299 C   0  0  0  0  0  0  0  0  0  0  0  0
    0.1957   -2.1211    2.5842 C   0  0  0  0  0  0  0  0  0  0  0  0
   -1.7804   -0.1843   -0.0446 N   0  0  0  0  0  0  0  0  0  0  0  0
   -3.1883   -0.1219    0.3490 C   0  0  0  0  0  0  0  0  0  0  0  0
   -4.1280   -0.7315   -0.6729 C   0  0  0  0  0  0  0  0  0  0  0  0
   -5.4387   -0.2290   -0.7929 C   0  0  0  0  0  0  0  0  0  0  0  0
   -6.3476   -0.8078   -1.6903 C   0  0  0  0  0  0  0  0  0  0  0  0
   -5.9539   -1.8918   -2.4911 C   0  0  0  0  0  0  0  0  0  0  0  0
   -4.6464   -2.3909   -2.3878 C   0  0  0  0  0  0  0  0  0  0  0  0
   -3.7400   -1.8163   -1.4836 C   0  0  0  0  0  0  0  0  0  0  0  0
   -1.4362    0.6800   -1.1968 C   0  0  0  0  0  0  0  0  0  0  0  0
   -1.2992    2.1287   -0.7791 C   0  0  0  0  0  0  0  0  0  0  0  0
   -2.3672    3.0318   -0.9495 C   0  0  0  0  0  0  0  0  0  0  0  0
   -2.2525    4.3623   -0.5153 C   0  0  0  0  0  0  0  0  0  0  0  0
   -1.0666    4.8038    0.0920 C   0  0  0  0  0  0  0  0  0  0  0  0
    0.0069    3.9126    0.2579 C   0  0  0  0  0  0  0  0  0  0  0  0
   -0.1087    2.5844   -0.1741 C   0  0  0  0  0  0  0  0  0  0  0  0
   -0.9433    0.9039    2.4615 H   0  0  0  0  0  0  0  0  0  0  0  0
   -0.5200    0.0800    3.9957 H   0  0  0  0  0  0  0  0  0  0  0  0
   -2.0486    1.9898    4.4619 H   0  0  0  0  0  0  0  0  0  0  0  0
   -2.8950    0.4472    4.8283 H   0  0  0  0  0  0  0  0  0  0  0  0
   -3.2721    1.3442    3.3197 H   0  0  0  0  0  0  0  0  0  0  0  0
   -2.1186   -3.5108    2.4510 H   0  0  0  0  0  0  0  0  0  0  0  0
   -1.3590   -3.5593    0.8202 H   0  0  0  0  0  0  0  0  0  0  0  0
   -2.9007   -2.6760    1.0726 H   0  0  0  0  0  0  0  0  0  0  0  0
    0.8703   -1.2723    2.7977 H   0  0  0  0  0  0  0  0  0  0  0  0
    0.7593   -2.8286    1.9495 H   0  0  0  0  0  0  0  0  0  0  0  0
   -0.0708   -2.6236    3.5346 H   0  0  0  0  0  0  0  0  0  0  0  0
   -3.4480    0.9495    0.4954 H   0  0  0  0  0  0  0  0  0  0  0  0
   -3.2957   -0.5964    1.3415 H   0  0  0  0  0  0  0  0  0  0  0  0
   -5.7490    0.6278   -0.1732 H   0  0  0  0  0  0  0  0  0  0  0  0
   -7.3683   -0.4039   -1.7708 H   0  0  0  0  0  0  0  0  0  0  0  0
   -6.6639   -2.3423   -3.2008 H   0  0  0  0  0  0  0  0  0  0  0  0
   -4.3261   -3.2346   -3.0177 H   0  0  0  0  0  0  0  0  0  0  0  0
   -2.7131   -2.2071   -1.4156 H   0  0  0  0  0  0  0  0  0  0  0  0
   -2.2445    0.5632   -1.9450 H   0  0  0  0  0  0  0  0  0  0  0  0
   -0.4918    0.2989   -1.6287 H   0  0  0  0  0  0  0  0  0  0  0  0
   -3.2937    2.6909   -1.4400 H   0  0  0  0  0  0  0  0  0  0  0  0
   -3.0923    5.0592   -0.6586 H   0  0  0  0  0  0  0  0  0  0  0  0
   -0.9750    5.8479    0.4279 H   0  0  0  0  0  0  0  0  0  0  0  0
    0.9494    4.2487    0.7160 H   0  0  0  0  0  0  0  0  0  0  0  0
    0.7331    1.8894   -0.0521 H   0  0  0  0  0  0  0  0  0  0  0  0
  1  2  3  0  0  0  0
  3  2  1  1  0  0  0
  3  4  1  0  0  0  0
  4  9  1  0  0  0  0
  4  5  1  0  0  0  0
  5  6  1  0  0  0  0
  6 26  1  0  0  0  0
  6  7  1  0  0  0  0
  7 27  1  0  0  0  0
  7 28  1  0  0  0  0
  8  4  1  0  0  0  0
  8 30  1  0  0  0  0
  9 33  1  0  0  0  0
  9 35  1  0  0  0  0
 10 11  1  0  0  0  0
 10  3  1  0  0  0  0
 11 36  1  0  0  0  0
 11 37  1  0  0  0  0
 12 11  1  0  0  0  0
 13 12  1  0  0  0  0
 13 38  1  0  0  0  0
 14 13  2  0  0  0  0
 15 16  2  0  0  0  0
 15 14  1  0  0  0  0
 16 17  1  0  0  0  0
 17 42  1  0  0  0  0
 17 12  2  0  0  0  0
 18 19  1  0  0  0  0
 18 10  1  0  0  0  0
 19 24  1  0  0  0  0
 20 19  2  0  0  0  0
 20 21  1  0  0  0  0
 21 22  2  0  0  0  0
 22 23  1  0  0  0  0
 22 47  1  0  0  0  0
 23 48  1  0  0  0  0
 24 49  1  0  0  0  0
 24 23  2  0  0  0  0
 25  6  1  0  0  0  0
 29  7  1  0  0  0  0
 31  8  1  0  0  0  0
 32  8  1  0  0  0  0
 34  9  1  0  0  0  0
 39 14  1  0  0  0  0
 40 15  1  0  0  0  0
 41 16  1  0  0  0  0
 43 18  1  0  0  0  0
 44 18  1  0  0  0  0
 45 20  1  0  0  0  0
 46 21  1  0  0  0  0
M  END
