15
 OpenBabel05122313113D

 35 36  0  0  0  0  0  0  0  0999 V2000
    7.6916    0.8995    0.1851 O   0  0  0  0  0  0  0  0  0  0  0  0
    3.4963    1.1421    0.1253 C   0  0  0  0  0  0  0  0  0  0  0  0
    4.1223   -0.1497   -0.0150 C   0  0  0  0  0  0  0  0  0  0  0  0
   -0.1542    0.2127   -0.0656 C   0  0  0  0  0  0  0  0  0  0  0  0
    1.2669    0.1086   -0.0462 C   0  0  0  0  0  0  0  0  0  0  0  0
    2.0814    1.2411    0.1063 C   0  0  0  0  0  0  0  0  0  0  0  0
    1.6111    2.2300    0.2137 H   0  0  0  0  0  0  0  0  0  0  0  0
    6.3311    0.8874    0.1552 C   0  0  0  0  0  0  0  0  0  0  0  0
    5.5434   -0.2530    0.0029 C   0  0  0  0  0  0  0  0  0  0  0  0
    5.9938   -1.2489   -0.1059 H   0  0  0  0  0  0  0  0  0  0  0  0
    4.3383    2.2874    0.2797 C   0  0  0  0  0  0  0  0  0  0  0  0
    3.8698    3.2781    0.3876 H   0  0  0  0  0  0  0  0  0  0  0  0
    5.7136    2.1686    0.2948 C   0  0  0  0  0  0  0  0  0  0  0  0
    6.3693    3.0435    0.4128 H   0  0  0  0  0  0  0  0  0  0  0  0
   -1.3934    0.2905   -0.0846 C   0  0  0  0  0  3  0  0  0  0  0  0
    9.8793   -0.0524    0.1116 C   0  0  0  0  0  0  0  0  0  0  0  0
   10.1362    0.6723   -0.6909 H   0  0  0  0  0  0  0  0  0  0  0  0
   10.1042    0.4574    1.0732 H   0  0  0  0  0  0  0  0  0  0  0  0
    3.2799   -1.2914   -0.1688 C   0  0  0  0  0  0  0  0  0  0  0  0
    3.7473   -2.2830   -0.2766 H   0  0  0  0  0  0  0  0  0  0  0  0
    8.3864   -0.3342    0.0498 C   0  0  0  0  0  0  0  0  0  0  0  0
    8.1167   -0.8214   -0.9175 H   0  0  0  0  0  0  0  0  0  0  0  0
    8.0833   -1.0356    0.8634 H   0  0  0  0  0  0  0  0  0  0  0  0
    1.9022   -1.1720   -0.1846 C   0  0  0  0  0  0  0  0  0  0  0  0
    1.2657   -2.0607   -0.3041 H   0  0  0  0  0  0  0  0  0  0  0  0
   12.2363   -1.0514    0.0324 C   0  0  0  0  0  0  0  0  0  0  0  0
   12.4770   -0.5420    0.9919 H   0  0  0  0  0  0  0  0  0  0  0  0
   12.5085   -0.3264   -0.7665 H   0  0  0  0  0  0  0  0  0  0  0  0
   10.7288   -1.3175   -0.0272 C   0  0  0  0  0  0  0  0  0  0  0  0
   10.4851   -1.8267   -0.9874 H   0  0  0  0  0  0  0  0  0  0  0  0
   10.4533   -2.0415    0.7731 H   0  0  0  0  0  0  0  0  0  0  0  0
   13.0827   -2.3167   -0.1076 C   0  0  0  0  0  0  0  0  0  0  0  0
   12.8568   -3.0448    0.6995 H   0  0  0  0  0  0  0  0  0  0  0  0
   14.1674   -2.0926   -0.0608 H   0  0  0  0  0  0  0  0  0  0  0  0
   12.8884   -2.8272   -1.0742 H   0  0  0  0  0  0  0  0  0  0  0  0
  2 11  1  0  0  0  0
  3  9  1  0  0  0  0
  3  2  1  0  0  0  0
  4  5  1  0  0  0  0
  5  6  1  0  0  0  0
  6  2  2  0  0  0  0
  6  7  1  0  0  0  0
  8  1  1  0  0  0  0
  8 13  1  0  0  0  0
  9  8  2  0  0  0  0
 10  9  1  0  0  0  0
 11 13  2  0  0  0  0
 11 12  1  0  0  0  0
 13 14  1  0  0  0  0
 15  4  3  0  0  0  0
 16 18  1  0  0  0  0
 17 16  1  0  0  0  0
 19  3  2  0  0  0  0
 20 19  1  0  0  0  0
 21 16  1  0  0  0  0
 21  1  1  0  0  0  0
 21 23  1  0  0  0  0
 22 21  1  0  0  0  0
 24 19  1  0  0  0  0
 24  5  2  0  0  0  0
 25 24  1  0  0  0  0
 26 27  1  0  0  0  0
 28 26  1  0  0  0  0
 29 26  1  0  0  0  0
 29 16  1  0  0  0  0
 29 31  1  0  0  0  0
 30 29  1  0  0  0  0
 32 34  1  0  0  0  0
 32 26  1  0  0  0  0
 32 33  1  0  0  0  0
 35 32  1  0  0  0  0
M  END
