3
 OpenBabel05122313113D

 14 14  0  0  0  0  0  0  0  0999 V2000
    2.2209   -2.5741    0.0075 I   0  0  0  0  0  0  0  0  0  0  0  0
    1.3984    0.5426   -0.0010 C   0  0  0  0  0  3  0  0  0  0  0  0
    1.2158   -0.7768    0.0031 C   0  0  0  0  0  3  0  0  0  0  0  0
    2.3899    1.5878   -0.0047 C   0  0  0  0  0  0  0  0  0  0  0  0
    2.0207    2.9552   -0.0135 C   0  0  0  0  0  0  0  0  0  0  0  0
    3.0091    3.9453   -0.0182 C   0  0  0  0  0  0  0  0  0  0  0  0
    4.3679    3.5877   -0.0139 C   0  0  0  0  0  0  0  0  0  0  0  0
    4.7447    2.2325   -0.0050 C   0  0  0  0  0  0  0  0  0  0  0  0
    3.7649    1.2358   -0.0005 C   0  0  0  0  0  0  0  0  0  0  0  0
    0.9548    3.2186   -0.0161 H   0  0  0  0  0  0  0  0  0  0  0  0
    2.7195    5.0067   -0.0252 H   0  0  0  0  0  0  0  0  0  0  0  0
    5.1414    4.3710   -0.0175 H   0  0  0  0  0  0  0  0  0  0  0  0
    5.8095    1.9556   -0.0016 H   0  0  0  0  0  0  0  0  0  0  0  0
    4.0467    0.1722    0.0063 H   0  0  0  0  0  0  0  0  0  0  0  0
  2  3  2  0  0  0  0
  3  1  1  0  0  0  0
  4  2  1  0  0  0  0
  4  9  1  0  0  0  0
  5  4  2  0  0  0  0
  6  7  2  0  0  0  0
  6  5  1  0  0  0  0
  7  8  1  0  0  0  0
  8 13  1  0  0  0  0
  8  9  2  0  0  0  0
  9 14  1  0  0  0  0
 10  5  1  0  0  0  0
 11  6  1  0  0  0  0
 12  7  1  0  0  0  0
M  END
