4
 OpenBabel05122313113D

 37 38  0  0  0  0  0  0  0  0999 V2000
    2.9823   -1.2650    0.0386 N   0  0  0  0  0  0  0  0  0  0  0  0
    2.7154    0.5757   -1.1087 N   0  0  0  0  0  0  0  0  0  0  0  0
    2.4307   -2.5077    5.8408 N   0  0  0  0  0  0  0  0  0  0  0  0
    2.0434   -0.3743   -0.3993 C   0  0  0  0  0  2  0  0  0  0  0  0
    4.2616   -0.8782   -0.3698 C   0  0  0  0  0  0  0  0  0  0  0  0
    5.5311   -1.4441   -0.1750 C   0  0  0  0  0  0  0  0  0  0  0  0
    5.6757   -2.3657    0.4059 H   0  0  0  0  0  0  0  0  0  0  0  0
    6.6165   -0.7757   -0.7556 C   0  0  0  0  0  0  0  0  0  0  0  0
    7.6292   -1.1839   -0.6259 H   0  0  0  0  0  0  0  0  0  0  0  0
    6.4420    0.4122   -1.5046 C   0  0  0  0  0  0  0  0  0  0  0  0
    7.3226    0.9031   -1.9434 H   0  0  0  0  0  0  0  0  0  0  0  0
    5.1759    0.9783   -1.6994 C   0  0  0  0  0  0  0  0  0  0  0  0
    5.0470    1.9015   -2.2810 H   0  0  0  0  0  0  0  0  0  0  0  0
    4.0874    0.3118   -1.1152 C   0  0  0  0  0  0  0  0  0  0  0  0
    2.6941   -2.3985    0.9098 C   0  0  0  0  0  0  0  0  0  0  0  0
    3.4019   -3.2148    0.6593 H   0  0  0  0  0  0  0  0  0  0  0  0
    1.6764   -2.7594    0.6566 H   0  0  0  0  0  0  0  0  0  0  0  0
    2.7789   -2.0222    2.3916 C   0  0  0  0  0  0  0  0  0  0  0  0
    2.0552   -1.2051    2.5944 H   0  0  0  0  0  0  0  0  0  0  0  0
    3.7864   -1.6191    2.6228 H   0  0  0  0  0  0  0  0  0  0  0  0
    2.4751   -3.2216    3.3074 C   0  0  0  0  0  0  0  0  0  0  0  0
    1.4895   -3.6685    3.0512 H   0  0  0  0  0  0  0  0  0  0  0  0
    3.2277   -4.0274    3.1656 H   0  0  0  0  0  0  0  0  0  0  0  0
    2.4530   -2.8451    4.7201 C   0  0  0  0  0  0  0  0  0  0  0  0
    2.0985    1.7660   -1.6925 C   0  0  0  0  0  0  0  0  0  0  0  0
    1.0307    1.5227   -1.8679 H   0  0  0  0  0  0  0  0  0  0  0  0
    2.5600    1.9387   -2.6866 H   0  0  0  0  0  0  0  0  0  0  0  0
    2.2357    3.0021   -0.8003 C   0  0  0  0  0  0  0  0  0  0  0  0
    3.3128    3.2048   -0.6144 H   0  0  0  0  0  0  0  0  0  0  0  0
    1.7892    2.7747    0.1934 H   0  0  0  0  0  0  0  0  0  0  0  0
    1.5703    4.2427   -1.4028 C   0  0  0  0  0  0  0  0  0  0  0  0
    1.9733    4.4173   -2.4247 H   0  0  0  0  0  0  0  0  0  0  0  0
    0.4835    4.0437   -1.5397 H   0  0  0  0  0  0  0  0  0  0  0  0
    1.7676    5.4969   -0.5514 C   0  0  0  0  0  0  0  0  0  0  0  0
    1.2572    6.3731   -0.9964 H   0  0  0  0  0  0  0  0  0  0  0  0
    2.8429    5.7502   -0.4518 H   0  0  0  0  0  0  0  0  0  0  0  0
    1.3637    5.3596    0.4728 H   0  0  0  0  0  0  0  0  0  0  0  0
  1 15  1  0  0  0  0
  2  4  1  0  0  0  0
  4  1  1  0  0  0  0
  5  6  1  0  0  0  0
  5  1  1  0  0  0  0
  6  7  1  0  0  0  0
  8  9  1  0  0  0  0
  8  6  2  0  0  0  0
 10  8  1  0  0  0  0
 11 10  1  0  0  0  0
 12 10  2  0  0  0  0
 12 14  1  0  0  0  0
 13 12  1  0  0  0  0
 14  2  1  0  0  0  0
 14  5  2  0  0  0  0
 15 18  1  0  0  0  0
 16 15  1  0  0  0  0
 17 15  1  0  0  0  0
 18 19  1  0  0  0  0
 18 20  1  0  0  0  0
 18 21  1  0  0  0  0
 21 24  1  0  0  0  0
 22 21  1  0  0  0  0
 23 21  1  0  0  0  0
 24  3  3  0  0  0  0
 25  2  1  0  0  0  0
 25 28  1  0  0  0  0
 26 25  1  0  0  0  0
 27 25  1  0  0  0  0
 28 29  1  0  0  0  0
 28 30  1  0  0  0  0
 31 28  1  0  0  0  0
 31 34  1  0  0  0  0
 32 31  1  0  0  0  0
 33 31  1  0  0  0  0
 34 36  1  0  0  0  0
 34 37  1  0  0  0  0
 35 34  1  0  0  0  0
M  END
