1
 OpenBabel05122313113D

 29 31  0  0  1  0  0  0  0  0999 V2000
    0.5294   -0.5229   -0.4718 C   0  0  0  0  0  2  0  0  0  0  0  0
   -0.1718   -1.7844   -1.0067 C   0  0  0  0  0  0  0  0  0  0  0  0
   -1.4492   -0.9163   -1.1852 C   0  0  2  0  0  0  0  0  0  0  0  0
   -0.6510    0.1804   -0.6020 N   0  0  0  0  0  0  0  0  0  0  0  0
   -1.1067    1.4921   -0.3663 C   0  0  0  0  0  0  0  0  0  0  0  0
   -0.5084    2.3477    0.5822 C   0  0  0  0  0  0  0  0  0  0  0  0
   -1.0149    3.6394    0.7725 C   0  0  0  0  0  0  0  0  0  0  0  0
   -2.1247    4.0940    0.0436 C   0  0  0  0  0  0  0  0  0  0  0  0
   -2.7362    3.2341   -0.8820 C   0  0  0  0  0  0  0  0  0  0  0  0
   -2.2362    1.9429   -1.0877 C   0  0  0  0  0  0  0  0  0  0  0  0
   -2.6848   -1.3032   -0.4115 C   0  0  0  0  0  0  0  0  0  0  0  0
   -3.8227   -1.7882   -1.0821 C   0  0  0  0  0  0  0  0  0  0  0  0
   -4.9563   -2.1951   -0.3619 C   0  0  0  0  0  0  0  0  0  0  0  0
   -4.9652   -2.1111    1.0388 C   0  0  0  0  0  0  0  0  0  0  0  0
   -3.8361   -1.6195    1.7149 C   0  0  0  0  0  0  0  0  0  0  0  0
   -2.7021   -1.2187    0.9955 C   0  0  0  0  0  0  0  0  0  0  0  0
    0.2541   -2.2179   -1.9323 H   0  0  0  0  0  0  0  0  0  0  0  0
   -0.2860   -2.5832   -0.2483 H   0  0  0  0  0  0  0  0  0  0  0  0
   -1.7002   -0.7318   -2.2524 H   0  0  0  0  0  0  0  0  0  0  0  0
    0.3348    2.0005    1.1858 H   0  0  0  0  0  0  0  0  0  0  0  0
   -0.5340    4.2953    1.5136 H   0  0  0  0  0  0  0  0  0  0  0  0
   -2.5174    5.1091    0.2030 H   0  0  0  0  0  0  0  0  0  0  0  0
   -3.6145    3.5696   -1.4540 H   0  0  0  0  0  0  0  0  0  0  0  0
   -2.7265    1.2789   -1.8126 H   0  0  0  0  0  0  0  0  0  0  0  0
   -3.8199   -1.8455   -2.1826 H   0  0  0  0  0  0  0  0  0  0  0  0
   -5.8401   -2.5725   -0.8986 H   0  0  0  0  0  0  0  0  0  0  0  0
   -5.8559   -2.4227    1.6052 H   0  0  0  0  0  0  0  0  0  0  0  0
   -3.8406   -1.5427    2.8127 H   0  0  0  0  0  0  0  0  0  0  0  0
   -1.8219   -0.8235    1.5268 H   0  0  0  0  0  0  0  0  0  0  0  0
  2  1  1  0  0  0  0
  2 18  1  0  0  0  0
  3 19  1  6  0  0  0
  3  2  1  0  0  0  0
  3  4  1  0  0  0  0
  3 11  1  0  0  0  0
  4  1  1  0  0  0  0
  4  5  1  0  0  0  0
  5  6  1  0  0  0  0
  6  7  2  0  0  0  0
  6 20  1  0  0  0  0
  7 21  1  0  0  0  0
  8 22  1  0  0  0  0
  8  7  1  0  0  0  0
  9  8  2  0  0  0  0
 10  9  1  0  0  0  0
 10  5  2  0  0  0  0
 11 16  1  0  0  0  0
 12 11  2  0  0  0  0
 12 13  1  0  0  0  0
 13 14  2  0  0  0  0
 14 27  1  0  0  0  0
 14 15  1  0  0  0  0
 15 28  1  0  0  0  0
 16 29  1  0  0  0  0
 16 15  2  0  0  0  0
 17  2  1  0  0  0  0
 23  9  1  0  0  0  0
 24 10  1  0  0  0  0
 25 12  1  0  0  0  0
 26 13  1  0  0  0  0
M  END
