4
 OpenBabel05122313113D

 25 26  0  0  0  0  0  0  0  0999 V2000
   -1.1210   -1.5736   -0.5144 B   0  0  0  0  0  0  0  0  0  0  0  0
    0.2005   -1.8078   -1.2488 C   0  0  0  0  0  0  0  0  0  0  0  0
    0.7616   -0.7999   -2.0647 C   0  0  0  0  0  0  0  0  0  0  0  0
    0.2391    0.5157   -2.0899 C   0  0  0  0  0  3  0  0  0  0  0  0
   -0.8994    0.8519   -1.3065 C   0  0  0  0  0  3  0  0  0  0  0  0
   -1.5415   -0.0958   -0.4896 C   0  0  0  0  0  0  0  0  0  0  0  0
   -2.0036   -2.7412    0.1336 C   0  0  0  0  0  0  0  0  0  0  0  0
   -3.2549   -2.8658   -0.7071 C   0  0  0  0  0  0  0  0  0  0  0  0
   -3.2811   -3.6862   -1.8550 C   0  0  0  0  0  0  0  0  0  0  0  0
   -4.4189   -3.7511   -2.6729 C   0  0  0  0  0  0  0  0  0  0  0  0
   -5.5570   -2.9895   -2.3638 C   0  0  0  0  0  0  0  0  0  0  0  0
   -5.5440   -2.1645   -1.2277 C   0  0  0  0  0  0  0  0  0  0  0  0
   -4.4060   -2.1039   -0.4106 C   0  0  0  0  0  0  0  0  0  0  0  0
    0.7223   -2.7808   -1.2377 H   0  0  0  0  0  0  0  0  0  0  0  0
    1.6498   -1.0090   -2.6810 H   0  0  0  0  0  0  0  0  0  0  0  0
    0.7173    1.2882   -2.7075 H   0  0  0  0  0  0  0  0  0  0  0  0
   -1.2470    1.8957   -1.3332 H   0  0  0  0  0  0  0  0  0  0  0  0
   -2.3886    0.2751    0.1102 H   0  0  0  0  0  0  0  0  0  0  0  0
   -1.4517   -3.7040    0.1432 H   0  0  0  0  0  0  0  0  0  0  0  0
   -2.2903   -2.5037    1.1791 H   0  0  0  0  0  0  0  0  0  0  0  0
   -2.3906   -4.2840   -2.1078 H   0  0  0  0  0  0  0  0  0  0  0  0
   -4.4165   -4.4032   -3.5602 H   0  0  0  0  0  0  0  0  0  0  0  0
   -6.4503   -3.0398   -3.0047 H   0  0  0  0  0  0  0  0  0  0  0  0
   -6.4303   -1.5625   -0.9728 H   0  0  0  0  0  0  0  0  0  0  0  0
   -4.4041   -1.4498    0.4752 H   0  0  0  0  0  0  0  0  0  0  0  0
  1  6  2  0  0  0  0
  1  7  1  0  0  0  0
  2 14  1  0  0  0  0
  2  1  1  0  0  0  0
  3  2  2  0  0  0  0
  4  3  1  0  0  0  0
  4  5  1  0  0  0  0
  5  6  1  0  0  0  0
  6 18  1  0  0  0  0
  7 19  1  0  0  0  0
  7 20  1  0  0  0  0
  8 13  1  0  0  0  0
  8  7  1  0  0  0  0
  9  8  2  0  0  0  0
 10 11  2  0  0  0  0
 10  9  1  0  0  0  0
 11 12  1  0  0  0  0
 12 24  1  0  0  0  0
 12 13  2  0  0  0  0
 13 25  1  0  0  0  0
 15  3  1  0  0  0  0
 16  4  1  0  0  0  0
 17  5  1  0  0  0  0
 21  9  1  0  0  0  0
 22 10  1  0  0  0  0
 23 11  1  0  0  0  0
M  END
