4
 OpenBabel05122313113D

 33 34  0  0  1  0  0  0  0  0999 V2000
   -0.8288    1.3130    1.7947 S   0  0  0  0  0  0  0  0  0  0  0  0
    2.4037    0.3137    0.4010 N   0  0  0  0  0  0  0  0  0  0  0  0
    3.4193    0.1948    0.3169 H   0  0  0  0  0  0  0  0  0  0  0  0
   -0.8404    0.0287    0.6477 C   0  0  0  0  0  2  0  0  0  0  0  0
    4.1146    1.9805   -0.7884 O   0  0  0  0  0  0  0  0  0  0  0  0
    0.2296   -0.8674    0.3760 C   0  0  0  0  0  3  0  0  0  0  0  0
   -0.1192   -1.8293   -0.0305 H   0  0  0  0  0  0  0  0  0  0  0  0
    2.6305    3.6983   -0.7500 O   0  0  0  0  0  0  0  0  0  0  0  0
    1.6348   -0.8022    0.3592 C   0  0  1  0  0  3  0  0  0  0  0  0
    1.9737    1.6890    0.3190 C   0  0  1  0  0  0  0  0  0  0  0  0
    1.0096    1.7433   -0.2327 H   0  0  0  0  0  0  0  0  0  0  0  0
    1.7830    2.3116    1.7204 C   0  0  0  0  0  0  0  0  0  0  0  0
    2.7744    2.3818    2.2182 H   0  0  0  0  0  0  0  0  0  0  0  0
    1.3951    3.3430    1.6056 H   0  0  0  0  0  0  0  0  0  0  0  0
    0.8349    1.4703    2.5715 C   0  0  0  0  0  0  0  0  0  0  0  0
    0.6459    1.9530    3.5511 H   0  0  0  0  0  0  0  0  0  0  0  0
    1.2312    0.4534    2.7675 H   0  0  0  0  0  0  0  0  0  0  0  0
    3.0325    2.4495   -0.4770 C   0  0  0  0  0  0  0  0  0  0  0  0
    3.5675    4.5156   -1.4734 C   0  0  0  0  0  0  0  0  0  0  0  0
    3.0768    5.4955   -1.6031 H   0  0  0  0  0  0  0  0  0  0  0  0
    3.7970    4.0623   -2.4578 H   0  0  0  0  0  0  0  0  0  0  0  0
    4.5118    4.6226   -0.9039 H   0  0  0  0  0  0  0  0  0  0  0  0
    2.4015   -2.0621    0.1478 C   0  0  0  0  0  0  0  0  0  0  0  0
    3.5878   -2.0703   -0.6215 C   0  0  0  0  0  0  0  0  0  0  0  0
    3.9323   -1.1469   -1.1138 H   0  0  0  0  0  0  0  0  0  0  0  0
    4.3091   -3.2576   -0.8041 C   0  0  0  0  0  0  0  0  0  0  0  0
    5.2233   -3.2504   -1.4164 H   0  0  0  0  0  0  0  0  0  0  0  0
    3.8580   -4.4532   -0.2232 C   0  0  0  0  0  0  0  0  0  0  0  0
    4.4244   -5.3854   -0.3682 H   0  0  0  0  0  0  0  0  0  0  0  0
    2.6787   -4.4564    0.5401 C   0  0  0  0  0  0  0  0  0  0  0  0
    2.3220   -5.3894    1.0013 H   0  0  0  0  0  0  0  0  0  0  0  0
    1.9552   -3.2720    0.7249 C   0  0  0  0  0  0  0  0  0  0  0  0
    1.0407   -3.2720    1.3366 H   0  0  0  0  0  0  0  0  0  0  0  0
  1 15  1  0  0  0  0
  3  2  1  0  0  0  0
  4  1  1  0  0  0  0
  5 18  2  0  0  0  0
  6  4  1  0  0  0  0
  7  6  1  0  0  0  0
  8 18  1  0  0  0  0
  9 23  1  6  0  0  0
  9  6  1  0  0  0  0
  9  2  1  0  0  0  0
 10 11  1  6  0  0  0
 10  2  1  0  0  0  0
 10 12  1  0  0  0  0
 12 13  1  0  0  0  0
 12 15  1  0  0  0  0
 14 12  1  0  0  0  0
 15 17  1  0  0  0  0
 15 16  1  0  0  0  0
 18 10  1  0  0  0  0
 19 22  1  0  0  0  0
 19  8  1  0  0  0  0
 20 19  1  0  0  0  0
 21 19  1  0  0  0  0
 23 32  1  0  0  0  0
 24 23  2  0  0  0  0
 25 24  1  0  0  0  0
 26 24  1  0  0  0  0
 26 28  2  0  0  0  0
 27 26  1  0  0  0  0
 28 30  1  0  0  0  0
 29 28  1  0  0  0  0
 30 32  2  0  0  0  0
 30 31  1  0  0  0  0
 32 33  1  0  0  0  0
M  END
