4
 OpenBabel05122313113D

 48 49  0  0  1  0  0  0  0  0999 V2000
   -1.4792   -0.9074   -0.3555 N   0  0  0  0  0  0  0  0  0  0  0  0
   -3.6900   -0.9041   -1.4933 N   0  0  0  0  0  0  0  0  0  0  0  0
   -1.1618    1.3012   -0.3796 N   0  0  0  0  0  0  0  0  0  0  0  0
   -0.5183    0.1045   -0.1073 C   0  0  0  0  0  2  0  0  0  0  0  0
   -1.2585   -2.2405    0.2379 C   0  0  0  0  0  0  0  0  0  0  0  0
   -0.1538   -2.2833    0.3416 H   0  0  0  0  0  0  0  0  0  0  0  0
   -1.5569   -3.0334   -0.4723 H   0  0  0  0  0  0  0  0  0  0  0  0
   -1.9110   -2.4562    1.6440 C   0  0  0  0  0  0  0  0  0  0  0  0
   -1.9092   -1.1569    2.4658 C   0  0  0  0  0  0  0  0  0  0  0  0
   -2.2855   -1.3645    3.4870 H   0  0  0  0  0  0  0  0  0  0  0  0
   -2.5807   -0.3900    2.0246 H   0  0  0  0  0  0  0  0  0  0  0  0
   -0.8895   -0.7313    2.5630 H   0  0  0  0  0  0  0  0  0  0  0  0
   -3.3547   -2.9778    1.5408 C   0  0  0  0  0  0  0  0  0  0  0  0
   -3.4190   -3.9241    0.9622 H   0  0  0  0  0  0  0  0  0  0  0  0
   -4.0437   -2.2285    1.0968 H   0  0  0  0  0  0  0  0  0  0  0  0
   -3.7486   -3.1956    2.5534 H   0  0  0  0  0  0  0  0  0  0  0  0
   -1.0351   -3.5163    2.3423 C   0  0  0  0  0  0  0  0  0  0  0  0
   -0.0129   -3.1242    2.5152 H   0  0  0  0  0  0  0  0  0  0  0  0
   -0.9608   -4.4458    1.7402 H   0  0  0  0  0  0  0  0  0  0  0  0
   -1.4688   -3.7887    3.3247 H   0  0  0  0  0  0  0  0  0  0  0  0
   -2.6015   -0.3431   -0.8941 C   0  0  2  0  0  3  0  0  0  0  0  0
   -4.6822   -0.0727   -1.9696 C   0  0  0  0  0  0  0  0  0  0  0  0
   -5.5472   -0.5806   -2.4139 H   0  0  0  0  0  0  0  0  0  0  0  0
   -4.5692    1.3079   -1.9184 C   0  0  0  0  0  0  0  0  0  0  0  0
   -5.3905    1.9157   -2.3212 H   0  0  0  0  0  0  0  0  0  0  0  0
   -3.4105    1.9213   -1.3970 C   0  0  0  0  0  0  0  0  0  0  0  0
   -3.2942    3.0116   -1.3964 H   0  0  0  0  0  0  0  0  0  0  0  0
   -2.4248    1.0756   -0.8881 C   0  0  0  0  0  0  0  0  0  0  0  0
   -0.5057    2.6091   -0.2478 C   0  0  0  0  0  0  0  0  0  0  0  0
   -0.7426    3.2002   -1.1572 H   0  0  0  0  0  0  0  0  0  0  0  0
    0.5785    2.3703   -0.2616 H   0  0  0  0  0  0  0  0  0  0  0  0
   -0.8292    3.4300    1.0286 C   0  0  0  0  0  0  0  0  0  0  0  0
   -0.5687    2.5982    2.2926 C   0  0  0  0  0  0  0  0  0  0  0  0
   -0.7272    3.2215    3.1949 H   0  0  0  0  0  0  0  0  0  0  0  0
    0.4620    2.1956    2.3264 H   0  0  0  0  0  0  0  0  0  0  0  0
   -1.2577    1.7332    2.3623 H   0  0  0  0  0  0  0  0  0  0  0  0
   -2.2829    3.9349    1.0342 C   0  0  0  0  0  0  0  0  0  0  0  0
   -3.0134    3.1025    1.0964 H   0  0  0  0  0  0  0  0  0  0  0  0
   -2.5116    4.5490    0.1373 H   0  0  0  0  0  0  0  0  0  0  0  0
   -2.4558    4.5775    1.9203 H   0  0  0  0  0  0  0  0  0  0  0  0
    0.1276    4.6378    0.9890 C   0  0  0  0  0  0  0  0  0  0  0  0
   -0.0478    5.2949    1.8634 H   0  0  0  0  0  0  0  0  0  0  0  0
   -0.0190    5.2494    0.0745 H   0  0  0  0  0  0  0  0  0  0  0  0
    1.1872    4.3120    1.0207 H   0  0  0  0  0  0  0  0  0  0  0  0
   -3.7628   -2.3442   -1.7875 C   0  0  0  0  0  0  0  0  0  0  0  0
   -4.6795   -2.5344   -2.3702 H   0  0  0  0  0  0  0  0  0  0  0  0
   -3.7948   -2.9330   -0.8552 H   0  0  0  0  0  0  0  0  0  0  0  0
   -2.8840   -2.6395   -2.3919 H   0  0  0  0  0  0  0  0  0  0  0  0
  1  4  1  0  0  0  0
  1  5  1  0  0  0  0
  2 21  1  0  0  0  0
  3 29  1  0  0  0  0
  3  4  1  0  0  0  0
  5  6  1  0  0  0  0
  5  8  1  0  0  0  0
  7  5  1  0  0  0  0
  8 17  1  0  0  0  0
  8  9  1  0  0  0  0
  9 12  1  0  0  0  0
  9 10  1  0  0  0  0
 11  9  1  0  0  0  0
 13  8  1  0  0  0  0
 13 16  1  0  0  0  0
 14 13  1  0  0  0  0
 15 13  1  0  0  0  0
 17 18  1  0  0  0  0
 17 20  1  0  0  0  0
 19 17  1  0  0  0  0
 21 28  1  6  0  0  0
 21  1  1  0  0  0  0
 22 24  2  0  0  0  0
 22  2  1  0  0  0  0
 23 22  1  0  0  0  0
 24 26  1  0  0  0  0
 25 24  1  0  0  0  0
 26 27  1  0  0  0  0
 26 28  2  0  0  0  0
 28  3  1  0  0  0  0
 29 32  1  0  0  0  0
 30 29  1  0  0  0  0
 31 29  1  0  0  0  0
 32 37  1  0  0  0  0
 32 33  1  0  0  0  0
 33 35  1  0  0  0  0
 33 36  1  0  0  0  0
 33 34  1  0  0  0  0
 37 38  1  0  0  0  0
 37 40  1  0  0  0  0
 39 37  1  0  0  0  0
 41 44  1  0  0  0  0
 41 32  1  0  0  0  0
 41 42  1  0  0  0  0
 43 41  1  0  0  0  0
 45  2  1  0  0  0  0
 45 47  1  0  0  0  0
 46 45  1  0  0  0  0
 48 45  1  0  0  0  0
M  END
