3
 OpenBabel05122313113D

 27 28  0  0  1  0  0  0  0  0999 V2000
    2.9402   -1.0810   -0.0180 N   0  0  0  0  0  0  0  0  0  0  0  0
    4.3031   -0.8024    0.1640 N   0  0  0  0  0  0  0  0  0  0  0  0
    2.1681    0.0214    0.0319 C   0  0  0  0  0  3  0  0  0  0  0  0
    3.0918    1.1150    0.1834 C   0  0  0  0  0  0  0  0  0  0  0  0
    2.8981    2.5077    0.2970 C   0  0  0  0  0  0  0  0  0  0  0  0
    1.8754    2.9108    0.3051 H   0  0  0  0  0  0  0  0  0  0  0  0
    4.0219    3.3260    0.4099 C   0  0  0  0  0  0  0  0  0  0  0  0
    3.9023    4.4155    0.4999 H   0  0  0  0  0  0  0  0  0  0  0  0
    5.3283    2.7706    0.4122 C   0  0  0  0  0  0  0  0  0  0  0  0
    6.1956    3.4433    0.4958 H   0  0  0  0  0  0  0  0  0  0  0  0
    5.5495    1.3935    0.3195 C   0  0  0  0  0  0  0  0  0  0  0  0
    6.5682    0.9802    0.3309 H   0  0  0  0  0  0  0  0  0  0  0  0
    4.4089    0.5714    0.2253 C   0  0  1  0  0  3  0  0  0  0  0  0
    2.4487   -2.4554    0.0543 C   0  0  0  0  0  0  0  0  0  0  0  0
    1.4966   -2.4375   -0.5137 H   0  0  0  0  0  0  0  0  0  0  0  0
    3.1429   -3.1167   -0.5011 H   0  0  0  0  0  0  0  0  0  0  0  0
    2.2430   -2.9154    1.4952 C   0  0  0  0  0  0  0  0  0  0  0  0
    3.1952   -2.9266    2.0631 H   0  0  0  0  0  0  0  0  0  0  0  0
    1.8189   -3.9391    1.5089 H   0  0  0  0  0  0  0  0  0  0  0  0
    1.5395   -2.2300    2.0106 H   0  0  0  0  0  0  0  0  0  0  0  0
    5.3279   -1.6971   -0.3569 C   0  0  0  0  0  0  0  0  0  0  0  0
    6.2845   -1.3423    0.0762 H   0  0  0  0  0  0  0  0  0  0  0  0
    5.1641   -2.7078    0.0693 H   0  0  0  0  0  0  0  0  0  0  0  0
    5.3905   -1.7304   -1.8842 C   0  0  0  0  0  0  0  0  0  0  0  0
    4.4287   -2.0696   -2.3183 H   0  0  0  0  0  0  0  0  0  0  0  0
    6.1877   -2.4206   -2.2245 H   0  0  0  0  0  0  0  0  0  0  0  0
    5.6054   -0.7218   -2.2890 H   0  0  0  0  0  0  0  0  0  0  0  0
  1  3  1  0  0  0  0
  1 14  1  0  0  0  0
  1  2  1  0  0  0  0
  2 13  1  0  0  0  0
  3  4  2  0  0  0  0
  4  5  1  0  0  0  0
  5  6  1  0  0  0  0
  5  7  2  0  0  0  0
  7  9  1  0  0  0  0
  7  8  1  0  0  0  0
  9 10  1  0  0  0  0
 11 12  1  0  0  0  0
 11  9  2  0  0  0  0
 13  4  1  1  0  0  0
 13 11  1  0  0  0  0
 14 17  1  0  0  0  0
 15 14  1  0  0  0  0
 16 14  1  0  0  0  0
 17 19  1  0  0  0  0
 17 20  1  0  0  0  0
 17 18  1  0  0  0  0
 21 23  1  0  0  0  0
 21 22  1  0  0  0  0
 21  2  1  0  0  0  0
 24 21  1  0  0  0  0
 25 24  1  0  0  0  0
 26 24  1  0  0  0  0
 27 24  1  0  0  0  0
M  END
