9
 OpenBabel05122313113D

 23 23  0  0  1  0  0  0  0  0999 V2000
    5.7235    0.0006    0.7951 O   0  0  0  0  0  0  0  0  0  0  0  0
    5.3467    2.0738    1.3977 O   0  0  0  0  0  0  0  0  0  0  0  0
    3.5768    1.1347   -1.8610 O   0  0  0  0  0  0  0  0  0  0  0  0
    3.0559   -0.5191   -0.3701 N   0  0  0  0  0  0  0  0  0  0  0  0
    5.0361    0.8879    1.3033 N   0  0  0  0  0  0  0  0  0  0  0  0
    2.8842   -1.8664   -0.0120 C   0  0  0  0  0  0  0  0  0  0  0  0
    1.9195   -2.2171    0.8835 C   0  0  0  0  0  0  0  0  0  0  0  0
    0.9720   -1.2326    1.4343 C   0  0  0  0  0  3  0  0  0  0  0  0
    1.2740    0.1728    1.1887 C   0  0  0  0  0  3  0  0  0  0  0  0
    2.6531    0.4721    0.6278 C   0  0  1  0  0  0  0  0  0  0  0  0
    3.6738    0.4905    1.7947 C   0  0  0  0  0  0  0  0  0  0  0  0
    3.5605   -0.0679   -1.5875 C   0  0  0  0  0  0  0  0  0  0  0  0
    4.0708   -1.1255   -2.5393 C   0  0  0  0  0  0  0  0  0  0  0  0
    3.5632   -2.5963   -0.4705 H   0  0  0  0  0  0  0  0  0  0  0  0
    1.8524   -3.2730    1.1875 H   0  0  0  0  0  0  0  0  0  0  0  0
    0.5083   -1.5118    2.3960 H   0  0  0  0  0  0  0  0  0  0  0  0
    0.9782    0.8875    1.9799 H   0  0  0  0  0  0  0  0  0  0  0  0
    2.7018    1.4567    0.1286 H   0  0  0  0  0  0  0  0  0  0  0  0
    3.7644   -0.5186    2.2379 H   0  0  0  0  0  0  0  0  0  0  0  0
    3.3740    1.2409    2.5460 H   0  0  0  0  0  0  0  0  0  0  0  0
    4.8974   -1.7064   -2.0818 H   0  0  0  0  0  0  0  0  0  0  0  0
    4.4416   -0.6144   -3.4441 H   0  0  0  0  0  0  0  0  0  0  0  0
    3.2536   -1.8213   -2.8125 H   0  0  0  0  0  0  0  0  0  0  0  0
  1  5  2  0  0  0  0
  3 12  2  0  0  0  0
  4  6  1  0  0  0  0
  4 10  1  0  0  0  0
  5  2  2  0  0  0  0
  5 11  1  0  0  0  0
  6  7  2  0  0  0  0
  7 15  1  0  0  0  0
  7  8  1  0  0  0  0
  8 16  1  0  0  0  0
  9  8  1  0  0  0  0
  9 17  1  0  0  0  0
 10 18  1  6  0  0  0
 10  9  1  0  0  0  0
 10 11  1  0  0  0  0
 11 19  1  0  0  0  0
 11 20  1  0  0  0  0
 12  4  1  0  0  0  0
 13 21  1  0  0  0  0
 13 12  1  0  0  0  0
 14  6  1  0  0  0  0
 22 13  1  0  0  0  0
 23 13  1  0  0  0  0
M  END
