7
 OpenBabel05122313113D

 65 66  0  0  0  0  0  0  0  0999 V2000
    1.0320    2.0466    0.1152 P   0  0  0  0  0  0  0  0  0  0  0  0
   -2.3708   -0.9452   -0.0315 P   0  0  0  0  0  0  0  0  0  0  0  0
    2.3337    0.8225   -0.2007 C   0  0  0  0  0  3  0  0  0  0  0  0
    3.3897    1.0674   -0.0006 H   0  0  0  0  0  0  0  0  0  0  0  0
    1.9626   -0.4651   -0.5103 C   0  0  0  0  0  0  0  0  0  0  0  0
    0.5557   -0.7789   -0.9021 C   0  0  0  0  0  0  0  0  0  0  0  0
   -0.0709    0.0130   -1.9344 C   0  0  0  0  0  3  0  0  0  0  0  0
   -0.8491   -0.4492   -2.5650 H   0  0  0  0  0  0  0  0  0  0  0  0
    0.5744    0.7132   -2.4864 H   0  0  0  0  0  0  0  0  0  0  0  0
    0.0514   -2.1346   -0.6193 C   0  0  0  0  0  0  0  0  0  0  0  0
   -1.4280   -2.3821   -0.7870 C   0  0  0  0  0  0  0  0  0  0  0  0
   -1.7330   -3.3605   -0.3650 H   0  0  0  0  0  0  0  0  0  0  0  0
   -1.6946   -2.4086   -1.8662 H   0  0  0  0  0  0  0  0  0  0  0  0
    0.9210   -3.1231   -0.2493 C   0  0  0  0  0  0  0  0  0  0  0  0
    0.5450   -4.1349   -0.0269 H   0  0  0  0  0  0  0  0  0  0  0  0
    2.3583   -2.9158   -0.2339 C   0  0  0  0  0  0  0  0  0  0  0  0
    2.8995   -1.6047   -0.4276 C   0  0  0  0  0  0  0  0  0  0  0  0
    4.3019   -1.4463   -0.4605 C   0  0  0  0  0  0  0  0  0  0  0  0
    4.7249   -0.4461   -0.6365 H   0  0  0  0  0  0  0  0  0  0  0  0
    5.1627   -2.5361   -0.2921 C   0  0  0  0  0  0  0  0  0  0  0  0
    6.2521   -2.3867   -0.3342 H   0  0  0  0  0  0  0  0  0  0  0  0
    4.6307   -3.8204   -0.0699 C   0  0  0  0  0  0  0  0  0  0  0  0
    5.3023   -4.6807    0.0727 H   0  0  0  0  0  0  0  0  0  0  0  0
    3.2457   -4.0018   -0.0418 C   0  0  0  0  0  0  0  0  0  0  0  0
    2.8229   -5.0061    0.1195 H   0  0  0  0  0  0  0  0  0  0  0  0
    1.3855    2.6248    1.8768 C   0  0  0  0  0  0  0  0  0  0  0  0
    0.6007    3.3919    2.0596 H   0  0  0  0  0  0  0  0  0  0  0  0
    1.1426    1.4567    2.8360 C   0  0  0  0  0  0  0  0  0  0  0  0
    1.8661    0.6344    2.6567 H   0  0  0  0  0  0  0  0  0  0  0  0
    0.1249    1.0404    2.6951 H   0  0  0  0  0  0  0  0  0  0  0  0
    1.2488    1.7875    3.8903 H   0  0  0  0  0  0  0  0  0  0  0  0
    2.7642    3.2604    2.0750 C   0  0  0  0  0  0  0  0  0  0  0  0
    2.8948    3.5714    3.1330 H   0  0  0  0  0  0  0  0  0  0  0  0
    2.9158    4.1611    1.4477 H   0  0  0  0  0  0  0  0  0  0  0  0
    3.5782    2.5416    1.8463 H   0  0  0  0  0  0  0  0  0  0  0  0
    1.4534    3.5685   -0.9116 C   0  0  0  0  0  0  0  0  0  0  0  0
    2.4951    3.8502   -0.6408 H   0  0  0  0  0  0  0  0  0  0  0  0
    0.5029    4.7182   -0.5563 C   0  0  0  0  0  0  0  0  0  0  0  0
    0.7140    5.6057   -1.1889 H   0  0  0  0  0  0  0  0  0  0  0  0
    0.5944    5.0352    0.5015 H   0  0  0  0  0  0  0  0  0  0  0  0
   -0.5520    4.4194   -0.7290 H   0  0  0  0  0  0  0  0  0  0  0  0
    1.4089    3.2474   -2.4074 C   0  0  0  0  0  0  0  0  0  0  0  0
    0.3845    2.9537   -2.7165 H   0  0  0  0  0  0  0  0  0  0  0  0
    2.0985    2.4209   -2.6727 H   0  0  0  0  0  0  0  0  0  0  0  0
    1.6998    4.1389   -3.0015 H   0  0  0  0  0  0  0  0  0  0  0  0
   -2.7845   -1.5462    1.7005 C   0  0  0  0  0  0  0  0  0  0  0  0
   -3.3144   -0.6742    2.1447 H   0  0  0  0  0  0  0  0  0  0  0  0
   -3.7000   -2.7722    1.7559 C   0  0  0  0  0  0  0  0  0  0  0  0
   -3.2316   -3.6524    1.2678 H   0  0  0  0  0  0  0  0  0  0  0  0
   -4.6814   -2.5981    1.2724 H   0  0  0  0  0  0  0  0  0  0  0  0
   -3.8965   -3.0561    2.8112 H   0  0  0  0  0  0  0  0  0  0  0  0
   -1.4829   -1.7605    2.4830 C   0  0  0  0  0  0  0  0  0  0  0  0
   -1.7005   -1.9368    3.5569 H   0  0  0  0  0  0  0  0  0  0  0  0
   -0.8146   -0.8809    2.3925 H   0  0  0  0  0  0  0  0  0  0  0  0
   -0.9197   -2.6371    2.1028 H   0  0  0  0  0  0  0  0  0  0  0  0
   -4.0172   -0.9414   -0.9380 C   0  0  0  0  0  0  0  0  0  0  0  0
   -4.4040   -1.9851   -0.9354 H   0  0  0  0  0  0  0  0  0  0  0  0
   -3.8015   -0.4840   -2.3857 C   0  0  0  0  0  0  0  0  0  0  0  0
   -4.7704   -0.4376   -2.9250 H   0  0  0  0  0  0  0  0  0  0  0  0
   -3.1412   -1.1692   -2.9546 H   0  0  0  0  0  0  0  0  0  0  0  0
   -3.3408    0.5255   -2.4080 H   0  0  0  0  0  0  0  0  0  0  0  0
   -5.0114   -0.0219   -0.2169 C   0  0  0  0  0  0  0  0  0  0  0  0
   -4.6097    1.0090   -0.1422 H   0  0  0  0  0  0  0  0  0  0  0  0
   -5.2461   -0.3675    0.8092 H   0  0  0  0  0  0  0  0  0  0  0  0
   -5.9673    0.0262   -0.7791 H   0  0  0  0  0  0  0  0  0  0  0  0
  1 26  1  0  0  0  0
  2 46  1  0  0  0  0
  3  4  1  0  0  0  0
  3  1  1  0  0  0  0
  5 17  1  0  0  0  0
  5  3  1  0  0  0  0
  6 10  1  0  0  0  0
  6  5  2  0  0  0  0
  7  6  1  0  0  0  0
  8  7  1  0  0  0  0
  9  7  1  0  0  0  0
 10 14  2  0  0  0  0
 11 10  1  0  0  0  0
 11 12  1  0  0  0  0
 11  2  1  0  0  0  0
 13 11  1  0  0  0  0
 14 16  1  0  0  0  0
 14 15  1  0  0  0  0
 16 24  1  0  0  0  0
 17 16  2  0  0  0  0
 18 17  1  0  0  0  0
 18 20  2  0  0  0  0
 19 18  1  0  0  0  0
 20 22  1  0  0  0  0
 21 20  1  0  0  0  0
 22 24  2  0  0  0  0
 22 23  1  0  0  0  0
 24 25  1  0  0  0  0
 26 27  1  0  0  0  0
 26 32  1  0  0  0  0
 26 28  1  0  0  0  0
 28 31  1  0  0  0  0
 29 28  1  0  0  0  0
 30 28  1  0  0  0  0
 32 33  1  0  0  0  0
 34 32  1  0  0  0  0
 35 32  1  0  0  0  0
 36 37  1  0  0  0  0
 36 38  1  0  0  0  0
 36  1  1  0  0  0  0
 38 40  1  0  0  0  0
 39 38  1  0  0  0  0
 41 38  1  0  0  0  0
 42 36  1  0  0  0  0
 43 42  1  0  0  0  0
 44 42  1  0  0  0  0
 45 42  1  0  0  0  0
 46 48  1  0  0  0  0
 46 47  1  0  0  0  0
 46 52  1  0  0  0  0
 48 51  1  0  0  0  0
 49 48  1  0  0  0  0
 50 48  1  0  0  0  0
 52 53  1  0  0  0  0
 54 52  1  0  0  0  0
 55 52  1  0  0  0  0
 56 57  1  0  0  0  0
 56 62  1  0  0  0  0
 56  2  1  0  0  0  0
 58 56  1  0  0  0  0
 59 58  1  0  0  0  0
 60 58  1  0  0  0  0
 61 58  1  0  0  0  0
 62 63  1  0  0  0  0
 62 64  1  0  0  0  0
 65 62  1  0  0  0  0
M  END
