3
 OpenBabel05122313113D

 13 12  0  0  0  0  0  0  0  0999 V2000
   -0.1093    1.6214   -1.7262 O   0  0  0  0  0  0  0  0  0  0  0  0
    0.0285    2.4769    0.3582 O   0  0  0  0  0  0  0  0  0  0  0  0
   -0.0344    1.4375   -0.5182 C   0  0  0  0  0  3  0  0  0  0  0  0
   -0.0304    3.8007   -0.2241 C   0  0  0  0  0  0  0  0  0  0  0  0
    0.0412    4.8134    0.9038 C   0  0  0  0  0  0  0  0  0  0  0  0
   -0.0307    6.2510    0.3887 C   0  0  0  0  0  0  0  0  0  0  0  0
    0.8122    3.9175   -0.9387 H   0  0  0  0  0  0  0  0  0  0  0  0
   -0.9740    3.8948   -0.8034 H   0  0  0  0  0  0  0  0  0  0  0  0
   -0.7893    4.6147    1.6147 H   0  0  0  0  0  0  0  0  0  0  0  0
    0.9822    4.6512    1.4722 H   0  0  0  0  0  0  0  0  0  0  0  0
    0.8032    6.4727   -0.3097 H   0  0  0  0  0  0  0  0  0  0  0  0
    0.0241    6.9833    1.2184 H   0  0  0  0  0  0  0  0  0  0  0  0
   -0.9780    6.4358   -0.1598 H   0  0  0  0  0  0  0  0  0  0  0  0
  1  3  2  0  0  0  0
  3  2  1  0  0  0  0
  4  2  1  0  0  0  0
  4  5  1  0  0  0  0
  5 10  1  0  0  0  0
  5  9  1  0  0  0  0
  6  5  1  0  0  0  0
  6 12  1  0  0  0  0
  7  4  1  0  0  0  0
  8  4  1  0  0  0  0
 11  6  1  0  0  0  0
 13  6  1  0  0  0  0
M  END
