1
 OpenBabel05122313113D

 56 58  0  0  1  0  0  0  0  0999 V2000
   -1.0475    0.2966    1.6005 C   0  0  0  0  0  2  0  0  0  0  0  0
   -1.5690    0.9699    2.6275 N   0  0  0  0  0  0  0  0  0  0  0  0
   -2.9203    1.5151    2.6511 C   0  0  0  0  0  0  0  0  0  0  0  0
   -2.8748    2.6229    2.6047 H   0  0  0  0  0  0  0  0  0  0  0  0
   -3.4345    1.2171    3.5876 H   0  0  0  0  0  0  0  0  0  0  0  0
   -3.4945    1.1423    1.7905 H   0  0  0  0  0  0  0  0  0  0  0  0
   -0.7483    1.3652    3.7815 C   0  0  0  0  0  0  0  0  0  0  0  0
   -0.4851    0.4840    4.4018 H   0  0  0  0  0  0  0  0  0  0  0  0
   -1.3130    2.0801    4.4065 H   0  0  0  0  0  0  0  0  0  0  0  0
    0.1754    1.8425    3.4032 H   0  0  0  0  0  0  0  0  0  0  0  0
    0.3112   -0.2003    1.8578 C   0  0  0  0  0  0  0  0  0  0  0  0
    0.3880   -0.8076    2.7799 H   0  0  0  0  0  0  0  0  0  0  0  0
    1.4770   -0.0170    1.1597 C   0  0  0  0  0  0  0  0  0  0  0  0
    2.7016   -0.7088    1.6547 C   0  0  0  0  0  0  0  0  0  0  0  0
    2.6305   -1.9984    2.2387 C   0  0  0  0  0  0  0  0  0  0  0  0
    1.6604   -2.5181    2.2744 H   0  0  0  0  0  0  0  0  0  0  0  0
    3.7784   -2.6412    2.7178 C   0  0  0  0  0  0  0  0  0  0  0  0
    3.6946   -3.6465    3.1586 H   0  0  0  0  0  0  0  0  0  0  0  0
    5.0341   -2.0177    2.6183 C   0  0  0  0  0  0  0  0  0  0  0  0
    5.9375   -2.5250    2.9895 H   0  0  0  0  0  0  0  0  0  0  0  0
    5.1241   -0.7448    2.0337 C   0  0  0  0  0  0  0  0  0  0  0  0
    6.1012   -0.2436    1.9534 H   0  0  0  0  0  0  0  0  0  0  0  0
    3.9740   -0.1002    1.5569 C   0  0  0  0  0  0  0  0  0  0  0  0
    4.0484    0.9041    1.1145 H   0  0  0  0  0  0  0  0  0  0  0  0
    1.6442    0.9772    0.0724 C   0  0  1  0  0  3  0  0  0  0  0  0
    1.0962    2.3261    0.3022 C   0  0  0  0  0  0  0  0  0  0  0  0
    0.3763    2.5938    1.2757 O   0  0  0  0  0  0  0  0  0  0  0  0
    1.4006    3.4589   -0.7075 C   0  0  0  0  0  0  0  0  0  0  0  0
    0.2823    3.4613   -1.7727 C   0  0  0  0  0  0  0  0  0  0  0  0
   -0.7024    3.6228   -1.2923 H   0  0  0  0  0  0  0  0  0  0  0  0
    0.2250    2.5086   -2.3327 H   0  0  0  0  0  0  0  0  0  0  0  0
    0.4502    4.2821   -2.5011 H   0  0  0  0  0  0  0  0  0  0  0  0
    1.3983    4.8034    0.0328 C   0  0  0  0  0  0  0  0  0  0  0  0
    0.4335    4.9563    0.5505 H   0  0  0  0  0  0  0  0  0  0  0  0
    1.5628    5.6351   -0.6824 H   0  0  0  0  0  0  0  0  0  0  0  0
    2.1994    4.8409    0.7988 H   0  0  0  0  0  0  0  0  0  0  0  0
    2.7785    3.2040   -1.3288 C   0  0  0  0  0  0  0  0  0  0  0  0
    3.5465    3.2875   -0.5289 H   0  0  0  0  0  0  0  0  0  0  0  0
    3.0127    3.9906   -2.0769 H   0  0  0  0  0  0  0  0  0  0  0  0
    2.8771    1.8326   -1.9783 C   0  0  0  0  0  0  0  0  0  0  0  0
    2.3030    1.8046   -2.9318 H   0  0  0  0  0  0  0  0  0  0  0  0
    3.9298    1.6307   -2.2638 H   0  0  0  0  0  0  0  0  0  0  0  0
    2.3843    0.7060   -1.0988 C   0  0  2  0  0  3  0  0  0  0  0  0
    2.6686   -0.5401   -1.5596 N   0  0  0  0  0  0  0  0  0  0  0  0
    3.4244   -0.7769   -2.8067 C   0  0  0  0  0  0  0  0  0  0  0  0
    4.4662   -0.4032   -2.7247 H   0  0  0  0  0  0  0  0  0  0  0  0
    2.9399   -0.2361   -3.6482 H   0  0  0  0  0  0  0  0  0  0  0  0
    3.3510   -2.2932   -3.0216 C   0  0  0  0  0  0  0  0  0  0  0  0
    3.4140   -2.5626   -4.0933 H   0  0  0  0  0  0  0  0  0  0  0  0
    4.1897   -2.7961   -2.4964 H   0  0  0  0  0  0  0  0  0  0  0  0
    2.0186   -2.6643   -2.3612 C   0  0  0  0  0  0  0  0  0  0  0  0
    1.9208   -3.7403   -2.1225 H   0  0  0  0  0  0  0  0  0  0  0  0
    1.1669   -2.3729   -3.0100 H   0  0  0  0  0  0  0  0  0  0  0  0
    2.0441   -1.7951   -1.1063 C   0  0  0  0  0  0  0  0  0  0  0  0
    1.0513   -1.5821   -0.6762 H   0  0  0  0  0  0  0  0  0  0  0  0
    2.6577   -2.2699   -0.3133 H   0  0  0  0  0  0  0  0  0  0  0  0
  1 11  1  0  0  0  0
  1  2  1  0  0  0  0
  2  3  1  0  0  0  0
  2  7  1  0  0  0  0
  3  5  1  0  0  0  0
  4  3  1  0  0  0  0
  6  3  1  0  0  0  0
  7  8  1  0  0  0  0
  7  9  1  0  0  0  0
 10  7  1  0  0  0  0
 11 12  1  0  0  0  0
 13 14  1  0  0  0  0
 13 11  2  0  0  0  0
 14 15  1  0  0  0  0
 15 16  1  0  0  0  0
 15 17  2  0  0  0  0
 17 18  1  0  0  0  0
 19 17  1  0  0  0  0
 19 20  1  0  0  0  0
 21 19  2  0  0  0  0
 22 21  1  0  0  0  0
 23 14  2  0  0  0  0
 23 21  1  0  0  0  0
 24 23  1  0  0  0  0
 25 26  1  0  0  0  0
 25 13  1  1  0  0  0
 26 27  2  0  0  0  0
 28 33  1  0  0  0  0
 28 26  1  0  0  0  0
 29 30  1  0  0  0  0
 29 28  1  0  0  0  0
 31 29  1  0  0  0  0
 32 29  1  0  0  0  0
 33 34  1  0  0  0  0
 33 36  1  0  0  0  0
 35 33  1  0  0  0  0
 37 28  1  0  0  0  0
 37 38  1  0  0  0  0
 39 37  1  0  0  0  0
 40 37  1  0  0  0  0
 40 43  1  0  0  0  0
 41 40  1  0  0  0  0
 42 40  1  0  0  0  0
 43 44  1  6  0  0  0
 43 25  1  0  0  0  0
 44 54  1  0  0  0  0
 45 46  1  0  0  0  0
 45 44  1  0  0  0  0
 47 45  1  0  0  0  0
 48 45  1  0  0  0  0
 48 50  1  0  0  0  0
 48 51  1  0  0  0  0
 49 48  1  0  0  0  0
 51 52  1  0  0  0  0
 51 54  1  0  0  0  0
 53 51  1  0  0  0  0
 54 55  1  0  0  0  0
 54 56  1  0  0  0  0
M  END
