1
 OpenBabel05122313113D

 55 60  0  0  1  0  0  0  0  0999 V2000
    1.6051    0.3679    0.1389 C   0  0  0  0  0  2  0  0  0  0  0  0
    0.4313    0.0940    0.6826 O   0  0  0  0  0  0  0  0  0  0  0  0
   -0.6426    1.0326    0.2856 C   0  0  1  0  0  0  0  0  0  0  0  0
   -0.0087    1.7927   -0.8629 C   0  0  0  0  0  0  0  0  0  0  0  0
    1.4923    1.7428   -0.5168 C   0  0  1  0  0  0  0  0  0  0  0  0
    1.9144    2.8347    0.6005 C   0  0  2  0  0  0  0  0  0  0  0  0
    2.4533    2.0958   -1.6775 C   0  0  0  0  0  0  0  0  0  0  0  0
    3.2761    3.3128   -1.1300 C   0  0  1  0  0  0  0  0  0  0  0  0
    2.2905    4.4629   -0.9951 C   0  0  0  0  0  0  0  0  0  0  0  0
    1.4698    4.1747    0.0424 C   0  0  0  0  0  0  0  0  0  0  0  0
    3.4329    2.9122    0.3536 C   0  0  0  0  0  0  0  0  0  0  0  0
   -3.2118   -1.4550    0.9859 C   0  0  2  0  0  0  0  0  0  0  0  0
   -4.1701   -1.2663   -0.2202 C   0  0  1  0  0  0  0  0  0  0  0  0
   -4.3141    0.1949   -0.6417 C   0  0  2  0  0  0  0  0  0  0  0  0
   -2.9632    0.9444   -0.7708 C   0  0  2  0  0  0  0  0  0  0  0  0
   -1.8503    0.1779   -0.0422 C   0  0  2  0  0  0  0  0  0  0  0  0
   -2.3405   -0.3637    1.1792 O   0  0  0  0  0  0  0  0  0  0  0  0
   -2.5068   -2.6349    0.6684 O   0  0  0  0  0  0  0  0  0  0  0  0
   -3.5460   -1.9966   -1.2652 O   0  0  0  0  0  0  0  0  0  0  0  0
   -2.8664   -3.0983   -0.6472 C   0  0  0  0  0  0  0  0  0  0  0  0
   -3.8001   -4.3041   -0.5165 C   0  0  0  0  0  0  0  0  0  0  0  0
   -1.6046   -3.4106   -1.4371 C   0  0  0  0  0  0  0  0  0  0  0  0
   -4.9817    0.8747    0.4061 O   0  0  0  0  0  0  0  0  0  0  0  0
   -3.2057    2.2104   -0.1757 O   0  0  0  0  0  0  0  0  0  0  0  0
   -4.4797    2.2096    0.4983 C   0  0  0  0  0  0  0  0  0  0  0  0
   -5.4117    3.1818   -0.2251 C   0  0  0  0  0  0  0  0  0  0  0  0
   -4.2733    2.5337    1.9719 C   0  0  0  0  0  0  0  0  0  0  0  0
   -0.8635    1.6701    1.1651 H   0  0  0  0  0  0  0  0  0  0  0  0
   -0.3977    2.8211   -0.9696 H   0  0  0  0  0  0  0  0  0  0  0  0
   -0.1794    1.2554   -1.8200 H   0  0  0  0  0  0  0  0  0  0  0  0
    1.5749    2.5787    1.6212 H   0  0  0  0  0  0  0  0  0  0  0  0
    1.8946    2.3544   -2.5979 H   0  0  0  0  0  0  0  0  0  0  0  0
    3.1152    1.2445   -1.9178 H   0  0  0  0  0  0  0  0  0  0  0  0
    4.2003    3.5195   -1.6999 H   0  0  0  0  0  0  0  0  0  0  0  0
    2.2087    5.3113   -1.6899 H   0  0  0  0  0  0  0  0  0  0  0  0
    0.5830    4.7355    0.3695 H   0  0  0  0  0  0  0  0  0  0  0  0
    3.9116    3.7039    0.9619 H   0  0  0  0  0  0  0  0  0  0  0  0
    3.9570    1.9526    0.5074 H   0  0  0  0  0  0  0  0  0  0  0  0
   -3.7368   -1.5707    1.9546 H   0  0  0  0  0  0  0  0  0  0  0  0
   -5.1802   -1.6685    0.0271 H   0  0  0  0  0  0  0  0  0  0  0  0
   -4.8835    0.2451   -1.5992 H   0  0  0  0  0  0  0  0  0  0  0  0
   -2.6800    1.0879   -1.8354 H   0  0  0  0  0  0  0  0  0  0  0  0
   -1.5070   -0.6404   -0.7142 H   0  0  0  0  0  0  0  0  0  0  0  0
   -3.2917   -5.1175    0.0356 H   0  0  0  0  0  0  0  0  0  0  0  0
   -4.0939   -4.6768   -1.5169 H   0  0  0  0  0  0  0  0  0  0  0  0
   -4.7159   -4.0311    0.0433 H   0  0  0  0  0  0  0  0  0  0  0  0
   -1.8613   -3.7484   -2.4591 H   0  0  0  0  0  0  0  0  0  0  0  0
   -1.0336   -4.2091   -0.9271 H   0  0  0  0  0  0  0  0  0  0  0  0
   -0.9575   -2.5162   -1.5099 H   0  0  0  0  0  0  0  0  0  0  0  0
   -4.9851    4.2034   -0.2133 H   0  0  0  0  0  0  0  0  0  0  0  0
   -6.4048    3.2023    0.2639 H   0  0  0  0  0  0  0  0  0  0  0  0
   -5.5408    2.8711   -1.2804 H   0  0  0  0  0  0  0  0  0  0  0  0
   -3.8428    3.5471    2.0856 H   0  0  0  0  0  0  0  0  0  0  0  0
   -3.5820    1.7860    2.4044 H   0  0  0  0  0  0  0  0  0  0  0  0
   -5.2377    2.4939    2.5140 H   0  0  0  0  0  0  0  0  0  0  0  0
  1  2  1  0  0  0  0
  3  2  1  0  0  0  0
  3 28  1  1  0  0  0
  4  5  1  0  0  0  0
  4  3  1  0  0  0  0
  5  1  1  1  0  0  0
  5  6  1  0  0  0  0
  6 31  1  1  0  0  0
  7  8  1  0  0  0  0
  7  5  1  0  0  0  0
  8 34  1  6  0  0  0
  8  9  1  0  0  0  0
  8 11  1  0  0  0  0
  9 10  2  0  0  0  0
 10 36  1  0  0  0  0
 10  6  1  0  0  0  0
 11 38  1  0  0  0  0
 11  6  1  0  0  0  0
 11 37  1  0  0  0  0
 12 17  1  0  0  0  0
 12 39  1  1  0  0  0
 13 40  1  1  0  0  0
 13 12  1  0  0  0  0
 14 41  1  6  0  0  0
 14 13  1  0  0  0  0
 14 23  1  0  0  0  0
 15 42  1  6  0  0  0
 15 14  1  0  0  0  0
 15 24  1  0  0  0  0
 15 16  1  0  0  0  0
 16 43  1  6  0  0  0
 16  3  1  0  0  0  0
 16 17  1  0  0  0  0
 18 12  1  0  0  0  0
 19 20  1  0  0  0  0
 19 13  1  0  0  0  0
 20 21  1  0  0  0  0
 20 18  1  0  0  0  0
 21 44  1  0  0  0  0
 21 46  1  0  0  0  0
 22 48  1  0  0  0  0
 22 20  1  0  0  0  0
 23 25  1  0  0  0  0
 24 25  1  0  0  0  0
 25 27  1  0  0  0  0
 26 50  1  0  0  0  0
 26 51  1  0  0  0  0
 26 25  1  0  0  0  0
 27 53  1  0  0  0  0
 27 54  1  0  0  0  0
 27 55  1  0  0  0  0
 29  4  1  0  0  0  0
 30  4  1  0  0  0  0
 32  7  1  0  0  0  0
 33  7  1  0  0  0  0
 35  9  1  0  0  0  0
 45 21  1  0  0  0  0
 47 22  1  0  0  0  0
 49 22  1  0  0  0  0
 52 26  1  0  0  0  0
M  END
