4
 OpenBabel05122313113D

 25 25  0  0  1  0  0  0  0  0999 V2000
    2.7567   -1.7869   -1.6479 O   0  0  0  0  0  0  0  0  0  0  0  0
    0.3453   -1.8233   -1.9030 C   0  0  0  0  0  3  0  0  0  0  0  0
    0.4367   -1.2049   -2.8098 H   0  0  0  0  0  0  0  0  0  0  0  0
   -0.9869   -2.0745   -1.4145 C   0  0  0  0  0  3  0  0  0  0  0  0
   -1.7722   -1.7087   -2.0989 H   0  0  0  0  0  0  0  0  0  0  0  0
   -1.4165   -3.2719   -0.5815 C   0  0  0  0  0  0  0  0  0  0  0  0
   -2.5038   -3.1820   -0.3921 H   0  0  0  0  0  0  0  0  0  0  0  0
   -0.9527   -3.2510    0.4240 H   0  0  0  0  0  0  0  0  0  0  0  0
   -1.1353   -4.6463   -1.2368 C   0  0  0  0  0  0  0  0  0  0  0  0
   -1.3970   -5.4268   -0.4900 H   0  0  0  0  0  0  0  0  0  0  0  0
   -1.8387   -4.7907   -2.0844 H   0  0  0  0  0  0  0  0  0  0  0  0
    0.2887   -4.8898   -1.7582 C   0  0  0  0  0  0  0  0  0  0  0  0
    0.3381   -5.9342   -2.1310 H   0  0  0  0  0  0  0  0  0  0  0  0
    0.4645   -4.2618   -2.6579 H   0  0  0  0  0  0  0  0  0  0  0  0
    1.4512   -4.6943   -0.7734 C   0  0  0  0  0  0  0  0  0  0  0  0
    2.3893   -4.9865   -1.2896 H   0  0  0  0  0  0  0  0  0  0  0  0
    1.3441   -5.3916    0.0848 H   0  0  0  0  0  0  0  0  0  0  0  0
    1.6501   -3.2688   -0.1897 C   0  0  0  0  0  0  0  0  0  0  0  0
    0.9262   -3.0809    0.6244 H   0  0  0  0  0  0  0  0  0  0  0  0
    2.6569   -3.1845    0.2627 H   0  0  0  0  0  0  0  0  0  0  0  0
    1.5398   -2.1759   -1.2244 C   0  0  1  0  0  3  0  0  0  0  0  0
    2.8747   -0.7739   -2.6406 C   0  0  0  0  0  0  0  0  0  0  0  0
    3.9536   -0.5576   -2.7309 H   0  0  0  0  0  0  0  0  0  0  0  0
    2.3338    0.1454   -2.3212 H   0  0  0  0  0  0  0  0  0  0  0  0
    2.4836   -1.1138   -3.6227 H   0  0  0  0  0  0  0  0  0  0  0  0
  2  4  1  0  0  0  0
  2 21  1  0  0  0  0
  3  2  1  0  0  0  0
  4  6  1  0  0  0  0
  5  4  1  0  0  0  0
  6  7  1  0  0  0  0
  6  8  1  0  0  0  0
  9  6  1  0  0  0  0
  9 10  1  0  0  0  0
 11  9  1  0  0  0  0
 12  9  1  0  0  0  0
 12 15  1  0  0  0  0
 13 12  1  0  0  0  0
 14 12  1  0  0  0  0
 15 18  1  0  0  0  0
 15 17  1  0  0  0  0
 16 15  1  0  0  0  0
 18 20  1  0  0  0  0
 18 19  1  0  0  0  0
 21  1  1  6  0  0  0
 21 18  1  0  0  0  0
 22 24  1  0  0  0  0
 22  1  1  0  0  0  0
 23 22  1  0  0  0  0
 25 22  1  0  0  0  0
M  END
