6
 OpenBabel05122313113D

 57 58  0  0  0  0  0  0  0  0999 V2000
    0.2637    1.2039   -0.4118 C   0  0  0  0  0  0  0  0  0  0  0  0
   -0.9886    0.8069   -0.9749 C   0  0  0  0  0  0  0  0  0  0  0  0
   -0.8493   -0.6111   -1.2359 C   0  0  0  0  0  0  0  0  0  0  0  0
   -1.9419   -1.4071   -1.7370 C   0  0  0  0  0  0  0  0  0  0  0  0
   -3.1130   -0.6969   -2.1092 C   0  0  0  0  0  0  0  0  0  0  0  0
   -3.2636    0.7109   -1.8717 C   0  0  0  0  0  3  0  0  0  0  0  0
   -2.2426    1.4582   -1.2359 C   0  0  0  0  0  3  0  0  0  0  0  0
   -1.7733   -2.8831   -1.9485 C   0  0  0  0  0  0  0  0  0  0  0  0
    0.7333    2.9915    0.0258 Si  0  0  0  0  0  0  0  0  0  0  0  0
    0.5203    3.9850   -1.5714 C   0  0  0  0  0  0  0  0  0  0  0  0
   -0.4451    3.6143    1.3600 C   0  0  0  0  0  0  0  0  0  0  0  0
    2.5145    3.2218    0.6294 C   0  0  0  0  0  0  0  0  0  0  0  0
    0.3789   -1.0472   -0.8650 N   0  0  0  0  0  0  0  0  0  0  0  0
    0.9981    0.0486   -0.3877 N   0  0  0  0  0  0  0  0  0  0  0  0
    2.3431   -0.1400    0.1482 C   0  0  0  0  0  0  0  0  0  0  0  0
    3.5334   -0.7573   -1.2387 Si  0  0  0  0  0  0  0  0  0  0  0  0
    3.4681   -2.6260   -1.4787 C   0  0  0  0  0  0  0  0  0  0  0  0
    3.0006    0.1319   -2.8222 C   0  0  0  0  0  0  0  0  0  0  0  0
    5.2797   -0.2009   -0.7613 C   0  0  0  0  0  0  0  0  0  0  0  0
    2.2321   -1.0616    1.8469 Si  0  0  0  0  0  0  0  0  0  0  0  0
    1.6378   -2.8415    1.6966 C   0  0  0  0  0  0  0  0  0  0  0  0
    3.9581   -1.0017    2.6243 C   0  0  0  0  0  0  0  0  0  0  0  0
    0.9997   -0.0653    2.8792 C   0  0  0  0  0  0  0  0  0  0  0  0
   -3.9636   -1.2587   -2.5210 H   0  0  0  0  0  0  0  0  0  0  0  0
   -4.2238    1.1910   -2.1044 H   0  0  0  0  0  0  0  0  0  0  0  0
   -2.4002    2.5174   -0.9938 H   0  0  0  0  0  0  0  0  0  0  0  0
   -1.2558   -3.3485   -1.0879 H   0  0  0  0  0  0  0  0  0  0  0  0
   -1.1495   -3.0757   -2.8471 H   0  0  0  0  0  0  0  0  0  0  0  0
   -2.7513   -3.3811   -2.0868 H   0  0  0  0  0  0  0  0  0  0  0  0
    1.2262    3.6319   -2.3509 H   0  0  0  0  0  0  0  0  0  0  0  0
    0.7163    5.0622   -1.3908 H   0  0  0  0  0  0  0  0  0  0  0  0
   -0.5055    3.8892   -1.9802 H   0  0  0  0  0  0  0  0  0  0  0  0
   -0.3795    2.9943    2.2760 H   0  0  0  0  0  0  0  0  0  0  0  0
   -1.5026    3.5882    1.0322 H   0  0  0  0  0  0  0  0  0  0  0  0
   -0.1951    4.6622    1.6261 H   0  0  0  0  0  0  0  0  0  0  0  0
    2.7189    2.7009    1.5863 H   0  0  0  0  0  0  0  0  0  0  0  0
    2.6637    4.3075    0.8081 H   0  0  0  0  0  0  0  0  0  0  0  0
    3.2701    2.9046   -0.1175 H   0  0  0  0  0  0  0  0  0  0  0  0
    2.7189    0.8659    0.4118 H   0  0  0  0  0  0  0  0  0  0  0  0
    2.4138   -2.9477   -1.5911 H   0  0  0  0  0  0  0  0  0  0  0  0
    3.9092   -3.1657   -0.6166 H   0  0  0  0  0  0  0  0  0  0  0  0
    4.0306   -2.9216   -2.3881 H   0  0  0  0  0  0  0  0  0  0  0  0
    1.9825   -0.1843   -3.1263 H   0  0  0  0  0  0  0  0  0  0  0  0
    3.6951   -0.0978   -3.6563 H   0  0  0  0  0  0  0  0  0  0  0  0
    2.9905    1.2328   -2.6814 H   0  0  0  0  0  0  0  0  0  0  0  0
    5.3286    0.8993   -0.6243 H   0  0  0  0  0  0  0  0  0  0  0  0
    5.9992   -0.4715   -1.5616 H   0  0  0  0  0  0  0  0  0  0  0  0
    5.6269   -0.6758    0.1777 H   0  0  0  0  0  0  0  0  0  0  0  0
    2.3053   -3.4544    1.0608 H   0  0  0  0  0  0  0  0  0  0  0  0
    0.6174   -2.8759    1.2691 H   0  0  0  0  0  0  0  0  0  0  0  0
    1.6012   -3.3021    2.7058 H   0  0  0  0  0  0  0  0  0  0  0  0
    4.6693   -1.6645    2.0906 H   0  0  0  0  0  0  0  0  0  0  0  0
    3.9088   -1.3473    3.6776 H   0  0  0  0  0  0  0  0  0  0  0  0
    4.3788    0.0248    2.6251 H   0  0  0  0  0  0  0  0  0  0  0  0
    0.0085   -0.0285    2.3822 H   0  0  0  0  0  0  0  0  0  0  0  0
    1.3415    0.9782    3.0394 H   0  0  0  0  0  0  0  0  0  0  0  0
    0.8557   -0.5308    3.8757 H   0  0  0  0  0  0  0  0  0  0  0  0
  1 14  1  0  0  0  0
  1  9  1  0  0  0  0
  2  1  2  0  0  0  0
  3  2  1  0  0  0  0
  3 13  2  0  0  0  0
  4  3  1  0  0  0  0
  5  6  1  0  0  0  0
  5  4  2  0  0  0  0
  6  7  1  0  0  0  0
  7 26  1  0  0  0  0
  7  2  1  0  0  0  0
  8  4  1  0  0  0  0
  8 27  1  0  0  0  0
  9 12  1  0  0  0  0
  9 11  1  0  0  0  0
 10 31  1  0  0  0  0
 10  9  1  0  0  0  0
 11 35  1  0  0  0  0
 11 33  1  0  0  0  0
 12 37  1  0  0  0  0
 12 36  1  0  0  0  0
 13 14  1  0  0  0  0
 14 15  1  0  0  0  0
 15 39  1  0  0  0  0
 15 20  1  0  0  0  0
 16 19  1  0  0  0  0
 16 15  1  0  0  0  0
 17 16  1  0  0  0  0
 17 41  1  0  0  0  0
 18 45  1  0  0  0  0
 18 16  1  0  0  0  0
 19 46  1  0  0  0  0
 19 48  1  0  0  0  0
 20 22  1  0  0  0  0
 20 23  1  0  0  0  0
 21 20  1  0  0  0  0
 21 51  1  0  0  0  0
 22 54  1  0  0  0  0
 22 53  1  0  0  0  0
 23 56  1  0  0  0  0
 23 57  1  0  0  0  0
 24  5  1  0  0  0  0
 25  6  1  0  0  0  0
 28  8  1  0  0  0  0
 29  8  1  0  0  0  0
 30 10  1  0  0  0  0
 32 10  1  0  0  0  0
 34 11  1  0  0  0  0
 38 12  1  0  0  0  0
 40 17  1  0  0  0  0
 42 17  1  0  0  0  0
 43 18  1  0  0  0  0
 44 18  1  0  0  0  0
 47 19  1  0  0  0  0
 49 21  1  0  0  0  0
 50 21  1  0  0  0  0
 52 22  1  0  0  0  0
 55 23  1  0  0  0  0
M  END
