8
 OpenBabel05122313113D

 21 21  0  0  1  0  0  0  0  0999 V2000
    4.3705   -1.2096   -0.4095 O   0  0  0  0  0  0  0  0  0  0  0  0
   -1.8367   -2.0997    0.4694 C   0  0  0  0  0  0  0  0  0  0  0  0
   -2.6570   -2.5998    0.9972 H   0  0  0  0  0  0  0  0  0  0  0  0
    5.5130    0.5033    0.5232 O   0  0  0  0  0  0  0  0  0  0  0  0
    6.1130   -0.2526    0.7055 H   0  0  0  0  0  0  0  0  0  0  0  0
   -1.7319   -1.9242   -0.9579 C   0  0  0  0  0  3  0  0  0  0  0  0
   -2.4561   -2.2714   -1.7044 H   0  0  0  0  0  0  0  0  0  0  0  0
   -0.5240   -1.2192   -1.2304 C   0  0  0  0  0  3  0  0  0  0  0  0
   -0.1579   -0.9366   -2.2242 H   0  0  0  0  0  0  0  0  0  0  0  0
    0.1379   -0.9532    0.0273 C   0  0  2  0  0  3  0  0  0  0  0  0
   -0.6937   -1.4991    1.0691 C   0  0  0  0  0  0  0  0  0  0  0  0
   -0.4504   -1.4449    2.1365 H   0  0  0  0  0  0  0  0  0  0  0  0
    1.8391   -0.1064    1.4261 O   0  0  0  0  0  0  0  0  0  0  0  0
    1.4011   -0.2096    0.2856 C   0  0  0  0  0  0  0  0  0  0  0  0
    2.1103    0.4100   -0.9123 C   0  0  0  0  0  0  0  0  0  0  0  0
    1.4370    1.1639   -1.3733 H   0  0  0  0  0  0  0  0  0  0  0  0
    2.2680   -0.3837   -1.6730 H   0  0  0  0  0  0  0  0  0  0  0  0
    3.4410    1.0332   -0.5187 C   0  0  0  0  0  0  0  0  0  0  0  0
    3.8673    1.6203   -1.3594 H   0  0  0  0  0  0  0  0  0  0  0  0
    3.3258    1.7309    0.3334 H   0  0  0  0  0  0  0  0  0  0  0  0
    4.4567   -0.0263   -0.1373 C   0  0  0  0  0  0  0  0  0  0  0  0
  1 21  2  0  0  0  0
  2  3  1  0  0  0  0
  2 11  2  0  0  0  0
  4  5  1  0  0  0  0
  6  2  1  0  0  0  0
  7  6  1  0  0  0  0
  8  6  1  0  0  0  0
  8 10  1  0  0  0  0
  9  8  1  0  0  0  0
 10 14  1  1  0  0  0
 10 11  1  0  0  0  0
 11 12  1  0  0  0  0
 14 13  2  0  0  0  0
 15 18  1  0  0  0  0
 15 14  1  0  0  0  0
 16 15  1  0  0  0  0
 17 15  1  0  0  0  0
 18 21  1  0  0  0  0
 18 20  1  0  0  0  0
 19 18  1  0  0  0  0
 21  4  1  0  0  0  0
M  END
