2
 OpenBabel05122313113D

 16 15  0  0  0  0  0  0  0  0999 V2000
    3.1075    1.3257   -0.0468 N   0  3  0  0  0  0  0  0  0  0  0  0
    2.1253    0.5559   -1.0043 C   0  0  0  0  0  3  0  0  0  0  0  0
    4.4456    0.6514   -0.0441 C   0  0  0  0  0  0  0  0  0  0  0  0
    3.2535    2.7297   -0.5388 C   0  0  0  0  0  0  0  0  0  0  0  0
    2.5826    1.3546    1.3554 C   0  0  0  0  0  0  0  0  0  0  0  0
    2.7840    0.1796   -1.8131 H   0  0  0  0  0  0  0  0  0  0  0  0
    1.4879    1.3603   -1.4143 H   0  0  0  0  0  0  0  0  0  0  0  0
    5.0901    1.1305    0.7173 H   0  0  0  0  0  0  0  0  0  0  0  0
    4.8953    0.7618   -1.0473 H   0  0  0  0  0  0  0  0  0  0  0  0
    4.2813   -0.4289    0.1579 H   0  0  0  0  0  0  0  0  0  0  0  0
    2.2745    3.2398   -0.4732 H   0  0  0  0  0  0  0  0  0  0  0  0
    3.5860    2.7014   -1.5920 H   0  0  0  0  0  0  0  0  0  0  0  0
    4.0031    3.2637    0.0766 H   0  0  0  0  0  0  0  0  0  0  0  0
    2.5098    0.3125    1.7135 H   0  0  0  0  0  0  0  0  0  0  0  0
    1.5762    1.8066    1.3476 H   0  0  0  0  0  0  0  0  0  0  0  0
    3.2718    1.9542    1.9815 H   0  0  0  0  0  0  0  0  0  0  0  0
  1  3  1  0  0  0  0
  1  5  1  0  0  0  0
  2  1  1  0  0  0  0
  3 10  1  0  0  0  0
  3  8  1  0  0  0  0
  4 11  1  0  0  0  0
  4  1  1  0  0  0  0
  4 13  1  0  0  0  0
  5 14  1  0  0  0  0
  5 16  1  0  0  0  0
  6  2  1  0  0  0  0
  7  2  1  0  0  0  0
  9  3  1  0  0  0  0
 12  4  1  0  0  0  0
 15  5  1  0  0  0  0
M  CHG  1   1   1
M  END
