12
 OpenBabel05122313113D

 20 20  0  0  0  0  0  0  0  0999 V2000
    0.2607    0.5823   -2.2134 N   0  0  0  0  0  0  0  0  0  0  0  0
    0.1086   -0.3600   -2.6215 H   0  0  0  0  0  0  0  0  0  0  0  0
   -0.4668    1.2051   -2.5851 H   0  0  0  0  0  0  0  0  0  0  0  0
    2.5929    0.8813   -0.3009 N   0  0  0  0  0  0  0  0  0  0  0  0
    2.3894   -0.7668    1.0905 N   0  0  0  0  0  0  0  0  0  0  0  0
    1.6095    1.0879   -2.5444 C   0  0  0  0  0  0  0  0  0  0  0  0
    1.5791    1.7699   -3.4221 H   0  0  0  0  0  0  0  0  0  0  0  0
    2.2502    0.2254   -2.8173 H   0  0  0  0  0  0  0  0  0  0  0  0
    2.2578    1.8140   -1.3628 C   0  0  0  0  0  0  0  0  0  0  0  0
    3.1896    2.3144   -1.6926 H   0  0  0  0  0  0  0  0  0  0  0  0
    1.5641    2.5858   -0.9679 H   0  0  0  0  0  0  0  0  0  0  0  0
    1.6446    0.0329    0.2454 C   0  0  0  0  0  2  0  0  0  0  0  0
    3.8681    0.6223    0.1908 C   0  0  0  0  0  0  0  0  0  0  0  0
    4.7499    1.1897   -0.1218 H   0  0  0  0  0  0  0  0  0  0  0  0
    3.7349   -0.4123    1.0774 C   0  0  0  0  0  0  0  0  0  0  0  0
    4.4811   -0.9254    1.6912 H   0  0  0  0  0  0  0  0  0  0  0  0
    1.8427   -1.8720    1.8552 C   0  0  0  0  0  0  0  0  0  0  0  0
    2.5313   -2.7375    1.8051 H   0  0  0  0  0  0  0  0  0  0  0  0
    1.6926   -1.5914    2.9189 H   0  0  0  0  0  0  0  0  0  0  0  0
    0.8751   -2.1489    1.3960 H   0  0  0  0  0  0  0  0  0  0  0  0
  2  1  1  0  0  0  0
  3  1  1  0  0  0  0
  4 13  1  0  0  0  0
  4 12  1  0  0  0  0
  5 17  1  0  0  0  0
  6  1  1  0  0  0  0
  6  9  1  0  0  0  0
  7  6  1  0  0  0  0
  8  6  1  0  0  0  0
  9 11  1  0  0  0  0
  9  4  1  0  0  0  0
 10  9  1  0  0  0  0
 12  5  1  0  0  0  0
 13 15  2  0  0  0  0
 14 13  1  0  0  0  0
 15  5  1  0  0  0  0
 15 16  1  0  0  0  0
 17 19  1  0  0  0  0
 18 17  1  0  0  0  0
 20 17  1  0  0  0  0
M  END
