2
 OpenBabel05122313113D

 33 34  0  0  0  0  0  0  0  0999 V2000
    1.9465   -0.1806   -0.3238 O   0  0  0  0  0  0  0  0  0  0  0  0
   -0.2966   -1.6128   -0.3521 C   0  0  0  0  0  2  0  0  0  0  0  0
   -1.1896   -2.2546   -0.4521 H   0  0  0  0  0  0  0  0  0  0  0  0
    0.9782   -2.2998   -0.4248 C   0  0  0  0  0  0  0  0  0  0  0  0
    1.0647   -3.7069   -0.5296 C   0  0  0  0  0  0  0  0  0  0  0  0
    0.1304   -4.2845   -0.6086 H   0  0  0  0  0  0  0  0  0  0  0  0
    2.3118   -4.3391   -0.5225 C   0  0  0  0  0  0  0  0  0  0  0  0
    2.3851   -5.4326   -0.6157 H   0  0  0  0  0  0  0  0  0  0  0  0
    3.4719   -3.5725   -0.3377 C   0  0  0  0  0  0  0  0  0  0  0  0
    4.4495   -4.0698   -0.2435 H   0  0  0  0  0  0  0  0  0  0  0  0
    3.4341   -2.1643   -0.1945 C   0  0  0  0  0  0  0  0  0  0  0  0
    2.1765   -1.5327   -0.3280 C   0  0  0  0  0  0  0  0  0  0  0  0
    4.6773   -1.4576    0.2146 C   0  0  0  0  0  0  0  0  0  0  0  0
    5.8751   -1.5926   -0.5173 C   0  0  0  0  0  0  0  0  0  0  0  0
    5.8748   -2.1881   -1.4433 H   0  0  0  0  0  0  0  0  0  0  0  0
    7.0508   -0.9597   -0.0855 C   0  0  0  0  0  0  0  0  0  0  0  0
    7.9757   -1.0659   -0.6730 H   0  0  0  0  0  0  0  0  0  0  0  0
    7.0473   -0.1899    1.0880 C   0  0  0  0  0  0  0  0  0  0  0  0
    7.9696    0.3063    1.4263 H   0  0  0  0  0  0  0  0  0  0  0  0
    5.8611   -0.0572    1.8300 C   0  0  0  0  0  0  0  0  0  0  0  0
    5.8521    0.5399    2.7547 H   0  0  0  0  0  0  0  0  0  0  0  0
    4.6848   -0.6854    1.3999 C   0  0  0  0  0  0  0  0  0  0  0  0
    3.7510   -0.5769    1.9742 H   0  0  0  0  0  0  0  0  0  0  0  0
    2.8934    0.8062   -0.8841 C   0  0  0  0  0  0  0  0  0  0  0  0
    3.8423    0.6838   -0.3306 H   0  0  0  0  0  0  0  0  0  0  0  0
    3.1117    0.5384   -2.3647 C   0  0  0  0  0  0  0  0  0  0  0  0
    3.5292   -0.4744   -2.5316 H   0  0  0  0  0  0  0  0  0  0  0  0
    3.8393    1.2728   -2.7648 H   0  0  0  0  0  0  0  0  0  0  0  0
    2.1552    0.6322   -2.9151 H   0  0  0  0  0  0  0  0  0  0  0  0
    2.3123    2.1749   -0.5659 C   0  0  0  0  0  0  0  0  0  0  0  0
    1.3814    2.3621   -1.1377 H   0  0  0  0  0  0  0  0  0  0  0  0
    3.0523    2.9530   -0.8416 H   0  0  0  0  0  0  0  0  0  0  0  0
    2.0931    2.2645    0.5157 H   0  0  0  0  0  0  0  0  0  0  0  0
  3  2  1  0  0  0  0
  4  2  1  0  0  0  0
  4 12  1  0  0  0  0
  5  7  1  0  0  0  0
  5  4  2  0  0  0  0
  6  5  1  0  0  0  0
  7  9  2  0  0  0  0
  8  7  1  0  0  0  0
  9 10  1  0  0  0  0
  9 11  1  0  0  0  0
 11 13  1  0  0  0  0
 12  1  1  0  0  0  0
 12 11  2  0  0  0  0
 13 22  1  0  0  0  0
 14 16  1  0  0  0  0
 14 13  2  0  0  0  0
 15 14  1  0  0  0  0
 16 18  2  0  0  0  0
 17 16  1  0  0  0  0
 18 19  1  0  0  0  0
 18 20  1  0  0  0  0
 20 21  1  0  0  0  0
 22 20  2  0  0  0  0
 22 23  1  0  0  0  0
 24 30  1  0  0  0  0
 24 25  1  0  0  0  0
 24  1  1  0  0  0  0
 26 24  1  0  0  0  0
 27 26  1  0  0  0  0
 28 26  1  0  0  0  0
 29 26  1  0  0  0  0
 30 33  1  0  0  0  0
 31 30  1  0  0  0  0
 32 30  1  0  0  0  0
M  END
