3
 OpenBabel05122313113D

 40 41  0  0  1  0  0  0  0  0999 V2000
    1.4625    1.5511   -0.0315 N   0  0  0  0  0  0  0  0  0  0  0  0
    2.1712   -0.8196    0.2149 C   0  0  0  0  0  0  0  0  0  0  0  0
    0.7602   -1.2520    0.3538 C   0  0  1  0  0  3  0  0  0  0  0  0
   -2.4667   -2.0377    2.1331 C   0  0  0  0  0  0  0  0  0  0  0  0
   -3.4537   -1.7786    1.6987 H   0  0  0  0  0  0  0  0  0  0  0  0
   -2.3626   -1.4684    3.0761 H   0  0  0  0  0  0  0  0  0  0  0  0
   -2.5060   -3.1168    2.4008 H   0  0  0  0  0  0  0  0  0  0  0  0
    0.0064   -1.8540   -0.7082 C   0  0  1  0  0  3  0  0  0  0  0  0
    0.5549   -2.2219   -2.0569 C   0  0  0  0  0  0  0  0  0  0  0  0
    0.9673   -3.2550   -2.0567 H   0  0  0  0  0  0  0  0  0  0  0  0
    1.3783   -1.5453   -2.3596 H   0  0  0  0  0  0  0  0  0  0  0  0
   -0.2173   -2.1884   -2.8508 H   0  0  0  0  0  0  0  0  0  0  0  0
    2.5150    0.5298   -0.0294 C   0  0  0  0  0  0  0  0  0  0  0  0
   -1.2934   -2.1584   -0.1907 C   0  0  0  0  0  0  0  0  0  0  0  0
    3.2060   -1.7806    0.2498 C   0  0  0  0  0  0  0  0  0  0  0  0
    2.9311   -2.8307    0.4306 H   0  0  0  0  0  0  0  0  0  0  0  0
    1.5078    2.2829    1.2557 C   0  0  0  0  0  0  0  0  0  0  0  0
    1.3024    1.5923    2.0938 H   0  0  0  0  0  0  0  0  0  0  0  0
    0.7443    3.0810    1.2501 H   0  0  0  0  0  0  0  0  0  0  0  0
    2.5084    2.7444    1.4229 H   0  0  0  0  0  0  0  0  0  0  0  0
   -1.3366   -1.7569    1.1844 C   0  0  0  0  0  0  0  0  0  0  0  0
   -0.0598   -1.2062    1.5308 C   0  0  1  0  0  3  0  0  0  0  0  0
    4.8731   -0.0810   -0.1992 C   0  0  0  0  0  0  0  0  0  0  0  0
    5.9197    0.2152   -0.3665 H   0  0  0  0  0  0  0  0  0  0  0  0
    3.8622    0.8885   -0.2322 C   0  0  0  0  0  0  0  0  0  0  0  0
    4.1302    1.9381   -0.4214 H   0  0  0  0  0  0  0  0  0  0  0  0
    1.6176    2.5144   -1.1420 C   0  0  0  0  0  0  0  0  0  0  0  0
    2.5100    3.1696   -1.0148 H   0  0  0  0  0  0  0  0  0  0  0  0
    0.7188    3.1580   -1.1774 H   0  0  0  0  0  0  0  0  0  0  0  0
    1.7022    1.9675   -2.0972 H   0  0  0  0  0  0  0  0  0  0  0  0
    0.3700   -0.7682    2.9039 C   0  0  0  0  0  0  0  0  0  0  0  0
   -0.2240    0.0866    3.2946 H   0  0  0  0  0  0  0  0  0  0  0  0
    1.4388   -0.4771    2.9128 H   0  0  0  0  0  0  0  0  0  0  0  0
    0.2534   -1.5917    3.6402 H   0  0  0  0  0  0  0  0  0  0  0  0
    4.5446   -1.4230    0.0464 C   0  0  0  0  0  0  0  0  0  0  0  0
    5.3317   -2.1916    0.0732 H   0  0  0  0  0  0  0  0  0  0  0  0
   -2.3718   -2.9279   -0.8950 C   0  0  0  0  0  0  0  0  0  0  0  0
   -2.3454   -2.7820   -1.9930 H   0  0  0  0  0  0  0  0  0  0  0  0
   -3.3821   -2.6396   -0.5436 H   0  0  0  0  0  0  0  0  0  0  0  0
   -2.2651   -4.0206   -0.7140 H   0  0  0  0  0  0  0  0  0  0  0  0
  1 13  1  0  0  0  0
  1 17  1  0  0  0  0
  2 15  1  0  0  0  0
  3  2  1  1  0  0  0
  3 22  1  0  0  0  0
  4  7  1  0  0  0  0
  4  6  1  0  0  0  0
  5  4  1  0  0  0  0
  8  9  1  1  0  0  0
  8 14  1  0  0  0  0
  8  3  1  0  0  0  0
  9 10  1  0  0  0  0
 11  9  1  0  0  0  0
 12  9  1  0  0  0  0
 13  2  2  0  0  0  0
 14 21  2  0  0  0  0
 15 16  1  0  0  0  0
 17 20  1  0  0  0  0
 17 18  1  0  0  0  0
 19 17  1  0  0  0  0
 21 22  1  0  0  0  0
 21  4  1  0  0  0  0
 22 31  1  1  0  0  0
 23 35  1  0  0  0  0
 24 23  1  0  0  0  0
 25 23  2  0  0  0  0
 25 13  1  0  0  0  0
 26 25  1  0  0  0  0
 27 28  1  0  0  0  0
 27  1  1  0  0  0  0
 29 27  1  0  0  0  0
 30 27  1  0  0  0  0
 31 33  1  0  0  0  0
 31 32  1  0  0  0  0
 31 34  1  0  0  0  0
 35 36  1  0  0  0  0
 35 15  2  0  0  0  0
 37 40  1  0  0  0  0
 37 39  1  0  0  0  0
 37 14  1  0  0  0  0
 38 37  1  0  0  0  0
M  END
