1
 OpenBabel05122313113D

 38 39  0  0  0  0  0  0  0  0999 V2000
   -2.0422   -1.4746   -1.4069 C   0  0  0  0  0  3  0  0  0  0  0  0
   -2.9853   -1.4669   -1.9750 H   0  0  0  0  0  0  0  0  0  0  0  0
   -0.8292   -0.7921   -1.8192 C   0  0  0  0  0  0  0  0  0  0  0  0
   -0.7757    0.0081   -2.5681 H   0  0  0  0  0  0  0  0  0  0  0  0
    0.2709   -1.3825   -1.1582 C   0  0  0  0  0  0  0  0  0  0  0  0
   -0.2333   -2.4518   -0.3533 C   0  0  0  0  0  0  0  0  0  0  0  0
    0.3662   -3.0882    0.3128 H   0  0  0  0  0  0  0  0  0  0  0  0
   -1.6301   -2.5277   -0.5005 C   0  0  0  0  0  0  0  0  0  0  0  0
   -2.2908   -3.2799   -0.0482 H   0  0  0  0  0  0  0  0  0  0  0  0
    1.7296   -0.9480   -1.2419 C   0  0  0  0  0  0  0  0  0  0  0  0
    2.5833   -2.1256   -1.7578 C   0  0  0  0  0  0  0  0  0  0  0  0
    3.6542   -1.8464   -1.8354 H   0  0  0  0  0  0  0  0  0  0  0  0
    2.2307   -2.4413   -2.7602 H   0  0  0  0  0  0  0  0  0  0  0  0
    2.5035   -3.0038   -1.0857 H   0  0  0  0  0  0  0  0  0  0  0  0
    1.8916    0.2374   -2.2067 C   0  0  0  0  0  0  0  0  0  0  0  0
    2.9524    0.5484   -2.2800 H   0  0  0  0  0  0  0  0  0  0  0  0
    1.3025    1.1154   -1.8686 H   0  0  0  0  0  0  0  0  0  0  0  0
    1.5441   -0.0353   -3.2235 H   0  0  0  0  0  0  0  0  0  0  0  0
    3.6094   -0.0342    0.3334 C   0  0  0  0  0  0  0  0  0  0  0  0
    2.1894   -0.5285    0.1991 C   0  0  0  0  0  0  0  0  0  0  0  0
    1.4876    0.2547    0.5504 H   0  0  0  0  0  0  0  0  0  0  0  0
    2.0410   -1.4013    0.8668 H   0  0  0  0  0  0  0  0  0  0  0  0
    3.9137    1.3337    0.2127 C   0  0  0  0  0  0  0  0  0  0  0  0
    3.0923    2.0502    0.0467 H   0  0  0  0  0  0  0  0  0  0  0  0
    5.2373    1.8106    0.3042 C   0  0  0  0  0  0  0  0  0  0  0  0
    5.5268    3.2861    0.1702 C   0  0  0  0  0  0  0  0  0  0  0  0
    5.1786    3.6793   -0.8080 H   0  0  0  0  0  0  0  0  0  0  0  0
    6.6099    3.5007    0.2548 H   0  0  0  0  0  0  0  0  0  0  0  0
    5.0032    3.8730    0.9541 H   0  0  0  0  0  0  0  0  0  0  0  0
    6.2689    0.8825    0.5258 C   0  0  0  0  0  0  0  0  0  0  0  0
    7.3088    1.2421    0.6007 H   0  0  0  0  0  0  0  0  0  0  0  0
    6.0036   -0.4960    0.6643 C   0  0  0  0  0  0  0  0  0  0  0  0
    7.1292   -1.4673    0.9250 C   0  0  0  0  0  0  0  0  0  0  0  0
    7.9283   -1.3767    0.1600 H   0  0  0  0  0  0  0  0  0  0  0  0
    6.7727   -2.5156    0.9217 H   0  0  0  0  0  0  0  0  0  0  0  0
    7.6071   -1.2769    1.9095 H   0  0  0  0  0  0  0  0  0  0  0  0
    4.6721   -0.9336    0.5662 C   0  0  0  0  0  0  0  0  0  0  0  0
    4.4487   -2.0067    0.6806 H   0  0  0  0  0  0  0  0  0  0  0  0
  1  8  1  0  0  0  0
  2  1  1  0  0  0  0
  3  1  1  0  0  0  0
  3  5  2  0  0  0  0
  4  3  1  0  0  0  0
  5  6  1  0  0  0  0
  6  7  1  0  0  0  0
  8  6  2  0  0  0  0
  8  9  1  0  0  0  0
 10  5  1  0  0  0  0
 10 20  1  0  0  0  0
 11 10  1  0  0  0  0
 11 14  1  0  0  0  0
 12 11  1  0  0  0  0
 13 11  1  0  0  0  0
 15 17  1  0  0  0  0
 15 10  1  0  0  0  0
 16 15  1  0  0  0  0
 18 15  1  0  0  0  0
 19 37  1  0  0  0  0
 20 19  1  0  0  0  0
 20 21  1  0  0  0  0
 20 22  1  0  0  0  0
 23 25  1  0  0  0  0
 23 19  2  0  0  0  0
 24 23  1  0  0  0  0
 25 30  2  0  0  0  0
 26 28  1  0  0  0  0
 26 25  1  0  0  0  0
 26 29  1  0  0  0  0
 27 26  1  0  0  0  0
 30 31  1  0  0  0  0
 30 32  1  0  0  0  0
 32 33  1  0  0  0  0
 33 36  1  0  0  0  0
 34 33  1  0  0  0  0
 35 33  1  0  0  0  0
 37 32  2  0  0  0  0
 37 38  1  0  0  0  0
M  END
