4
 OpenBabel05122313113D

 33 34  0  0  0  0  0  0  0  0999 V2000
   -0.9665   -0.7248    0.1965 C   0  0  0  0  0  0  0  0  0  0  0  0
   -0.1131   -0.5753   -0.9336 C   0  0  0  0  0  0  0  0  0  0  0  0
   -0.2727    0.1226   -1.7678 H   0  0  0  0  0  0  0  0  0  0  0  0
    0.9357   -1.5638   -0.8556 C   0  0  0  0  0  3  0  0  0  0  0  0
    1.6027   -1.8517   -1.6820 H   0  0  0  0  0  0  0  0  0  0  0  0
    0.6931   -2.3358    0.3411 C   0  0  0  0  0  0  0  0  0  0  0  0
    1.2858   -3.1963    0.6801 H   0  0  0  0  0  0  0  0  0  0  0  0
   -0.4535   -1.8124    0.9695 C   0  0  0  0  0  0  0  0  0  0  0  0
   -0.8616   -2.1554    1.9304 H   0  0  0  0  0  0  0  0  0  0  0  0
   -2.3622    0.4049    0.6524 Si  0  0  0  0  0  0  0  0  0  0  0  0
   -2.6431    0.3250    2.5176 C   0  0  0  0  0  0  0  0  0  0  0  0
   -1.7052    0.5946    3.0454 H   0  0  0  0  0  0  0  0  0  0  0  0
   -2.9192   -0.7075    2.8138 H   0  0  0  0  0  0  0  0  0  0  0  0
   -3.4484    1.0019    2.8640 H   0  0  0  0  0  0  0  0  0  0  0  0
   -1.8941    2.1526    0.0919 C   0  0  0  0  0  0  0  0  0  0  0  0
   -1.8706    2.2092   -1.0160 H   0  0  0  0  0  0  0  0  0  0  0  0
   -0.8747    2.3695    0.4713 H   0  0  0  0  0  0  0  0  0  0  0  0
   -2.5760    2.9410    0.4611 H   0  0  0  0  0  0  0  0  0  0  0  0
   -3.9255   -0.0604   -0.1675 N   0  0  0  0  0  0  0  0  0  0  0  0
   -5.1079    0.6960   -0.0902 C   0  0  0  0  0  0  0  0  0  0  0  0
   -5.2132    2.0457    0.5495 C   0  0  0  0  0  0  0  0  0  0  0  0
   -4.7050    2.8453   -0.0323 H   0  0  0  0  0  0  0  0  0  0  0  0
   -4.7987    2.0819    1.5792 H   0  0  0  0  0  0  0  0  0  0  0  0
   -6.2817    2.3259    0.6197 H   0  0  0  0  0  0  0  0  0  0  0  0
   -6.1220   -0.0056   -0.7285 C   0  0  0  0  0  0  0  0  0  0  0  0
   -7.1578    0.3408   -0.8312 H   0  0  0  0  0  0  0  0  0  0  0  0
   -5.5631   -1.2237   -1.2130 C   0  0  0  0  0  0  0  0  0  0  0  0
   -6.0781   -2.0186   -1.7662 H   0  0  0  0  0  0  0  0  0  0  0  0
   -4.2189   -1.2475   -0.8602 C   0  0  0  0  0  0  0  0  0  0  0  0
   -3.2412   -2.3415   -1.1571 C   0  0  0  0  0  0  0  0  0  0  0  0
   -2.7944   -2.7901   -0.2466 H   0  0  0  0  0  0  0  0  0  0  0  0
   -2.3844   -2.0028   -1.7747 H   0  0  0  0  0  0  0  0  0  0  0  0
   -3.7705   -3.1422   -1.7095 H   0  0  0  0  0  0  0  0  0  0  0  0
  1 10  1  0  0  0  0
  1  8  1  0  0  0  0
  2  4  1  0  0  0  0
  2  1  2  0  0  0  0
  3  2  1  0  0  0  0
  4  6  1  0  0  0  0
  5  4  1  0  0  0  0
  6  7  1  0  0  0  0
  6  8  2  0  0  0  0
  8  9  1  0  0  0  0
 10 11  1  0  0  0  0
 11 13  1  0  0  0  0
 11 14  1  0  0  0  0
 11 12  1  0  0  0  0
 15 18  1  0  0  0  0
 15 17  1  0  0  0  0
 15 10  1  0  0  0  0
 16 15  1  0  0  0  0
 19 20  1  0  0  0  0
 19 10  1  0  0  0  0
 20 21  1  0  0  0  0
 21 24  1  0  0  0  0
 21 23  1  0  0  0  0
 22 21  1  0  0  0  0
 25 20  2  0  0  0  0
 26 25  1  0  0  0  0
 27 29  2  0  0  0  0
 27 25  1  0  0  0  0
 28 27  1  0  0  0  0
 29 19  1  0  0  0  0
 30 29  1  0  0  0  0
 30 31  1  0  0  0  0
 32 30  1  0  0  0  0
 33 30  1  0  0  0  0
M  END
