4
 OpenBabel05122313113D

 49 50  0  0  1  0  0  0  0  0999 V2000
    1.7882    2.1400    0.2850 Si  0  0  0  0  0  0  0  0  0  0  0  0
    3.0603   -0.4526   -0.8199 Si  0  0  0  0  0  0  0  0  0  0  0  0
    2.7555    1.2027   -0.7269 O   0  0  0  0  0  0  0  0  0  0  0  0
    0.0399    1.4417    0.4061 C   0  0  1  0  0  3  0  0  0  0  0  0
   -0.6365    1.2089    1.6501 C   0  0  0  0  0  0  0  0  0  0  0  0
   -0.1670    1.2131    2.6383 H   0  0  0  0  0  0  0  0  0  0  0  0
   -1.9897    0.9031    1.3964 C   0  0  0  0  0  0  0  0  0  0  0  0
   -2.7291    0.6175    2.1509 H   0  0  0  0  0  0  0  0  0  0  0  0
   -2.2237    0.9835   -0.0158 C   0  0  0  0  0  0  0  0  0  0  0  0
   -0.9698    1.3020   -0.6122 C   0  0  0  0  0  0  0  0  0  0  0  0
   -0.8178    1.4902   -1.6806 H   0  0  0  0  0  0  0  0  0  0  0  0
    1.3976   -1.3267   -0.9500 C   0  0  0  0  0  0  0  0  0  0  0  0
    1.0139   -2.5654   -0.3300 C   0  0  0  0  0  3  0  0  0  0  0  0
    1.5909   -3.0956    0.4347 H   0  0  0  0  0  0  0  0  0  0  0  0
   -0.2584   -2.9484   -0.8042 C   0  0  0  0  0  0  0  0  0  0  0  0
   -0.8404   -3.8135   -0.4711 H   0  0  0  0  0  0  0  0  0  0  0  0
   -0.6965   -1.9567   -1.7342 C   0  0  0  0  0  0  0  0  0  0  0  0
   -1.6537   -1.9548   -2.2652 H   0  0  0  0  0  0  0  0  0  0  0  0
    0.3314   -0.9840   -1.8443 C   0  0  0  0  0  0  0  0  0  0  0  0
    0.3268   -0.1202   -2.5171 H   0  0  0  0  0  0  0  0  0  0  0  0
   -3.5798    0.9681   -0.7156 C   0  0  0  0  0  0  0  0  0  0  0  0
   -3.6131   -0.0241   -1.8929 C   0  0  0  0  0  0  0  0  0  0  0  0
   -2.8007    0.1758   -2.6213 H   0  0  0  0  0  0  0  0  0  0  0  0
   -4.5765    0.0626   -2.4354 H   0  0  0  0  0  0  0  0  0  0  0  0
   -3.5139   -1.0617   -1.5208 H   0  0  0  0  0  0  0  0  0  0  0  0
   -4.7045    0.6140    0.2733 C   0  0  0  0  0  0  0  0  0  0  0  0
   -4.7730    1.3588    1.0917 H   0  0  0  0  0  0  0  0  0  0  0  0
   -4.5359   -0.3846    0.7211 H   0  0  0  0  0  0  0  0  0  0  0  0
   -5.6805    0.6033   -0.2524 H   0  0  0  0  0  0  0  0  0  0  0  0
   -3.8144    2.4018   -1.2527 C   0  0  0  0  0  0  0  0  0  0  0  0
   -3.7679    3.1471   -0.4332 H   0  0  0  0  0  0  0  0  0  0  0  0
   -4.8154    2.4719   -1.7263 H   0  0  0  0  0  0  0  0  0  0  0  0
   -3.0570    2.6826   -2.0120 H   0  0  0  0  0  0  0  0  0  0  0  0
    2.5127    2.1804    2.0193 C   0  0  0  0  0  0  0  0  0  0  0  0
    3.5867    2.4534    1.9830 H   0  0  0  0  0  0  0  0  0  0  0  0
    2.4194    1.1852    2.4996 H   0  0  0  0  0  0  0  0  0  0  0  0
    1.9916    2.9222    2.6584 H   0  0  0  0  0  0  0  0  0  0  0  0
    1.7046    3.8443   -0.5023 C   0  0  0  0  0  0  0  0  0  0  0  0
    2.7183    4.2858   -0.5881 H   0  0  0  0  0  0  0  0  0  0  0  0
    1.0744    4.5292    0.1005 H   0  0  0  0  0  0  0  0  0  0  0  0
    1.2712    3.7849   -1.5213 H   0  0  0  0  0  0  0  0  0  0  0  0
    4.0033   -1.0807    0.6771 C   0  0  0  0  0  0  0  0  0  0  0  0
    4.8873   -0.4420    0.8776 H   0  0  0  0  0  0  0  0  0  0  0  0
    4.3635   -2.1164    0.5067 H   0  0  0  0  0  0  0  0  0  0  0  0
    3.3520   -1.0885    1.5739 H   0  0  0  0  0  0  0  0  0  0  0  0
    4.0184   -0.7215   -2.4146 C   0  0  0  0  0  0  0  0  0  0  0  0
    4.9907   -0.1888   -2.3802 H   0  0  0  0  0  0  0  0  0  0  0  0
    3.4483   -0.3397   -3.2853 H   0  0  0  0  0  0  0  0  0  0  0  0
    4.2188   -1.7997   -2.5789 H   0  0  0  0  0  0  0  0  0  0  0  0
  1 34  1  0  0  0  0
  2  3  1  0  0  0  0
  2 42  1  0  0  0  0
  3  1  1  0  0  0  0
  4  1  1  1  0  0  0
  4  5  1  0  0  0  0
  5  6  1  0  0  0  0
  7  5  2  0  0  0  0
  7  8  1  0  0  0  0
  9  7  1  0  0  0  0
 10  9  2  0  0  0  0
 10  4  1  0  0  0  0
 11 10  1  0  0  0  0
 12  2  1  0  0  0  0
 12 13  1  0  0  0  0
 13 14  1  0  0  0  0
 15 16  1  0  0  0  0
 15 13  1  0  0  0  0
 17 15  2  0  0  0  0
 18 17  1  0  0  0  0
 19 17  1  0  0  0  0
 19 12  2  0  0  0  0
 20 19  1  0  0  0  0
 21  9  1  0  0  0  0
 21 26  1  0  0  0  0
 22 25  1  0  0  0  0
 22 21  1  0  0  0  0
 23 22  1  0  0  0  0
 24 22  1  0  0  0  0
 26 28  1  0  0  0  0
 26 27  1  0  0  0  0
 29 26  1  0  0  0  0
 30 21  1  0  0  0  0
 30 31  1  0  0  0  0
 32 30  1  0  0  0  0
 33 30  1  0  0  0  0
 34 36  1  0  0  0  0
 34 37  1  0  0  0  0
 35 34  1  0  0  0  0
 38 40  1  0  0  0  0
 38  1  1  0  0  0  0
 39 38  1  0  0  0  0
 41 38  1  0  0  0  0
 42 43  1  0  0  0  0
 42 45  1  0  0  0  0
 44 42  1  0  0  0  0
 46 47  1  0  0  0  0
 46  2  1  0  0  0  0
 48 46  1  0  0  0  0
 49 46  1  0  0  0  0
M  END
