3
 OpenBabel05122313113D

 52 55  0  0  1  0  0  0  0  0999 V2000
   -3.0466   -0.1848   -0.0733 N   0  0  0  0  0  0  0  0  0  0  0  0
   -1.6479   -0.1608   -0.0783 B   0  0  0  0  0  0  0  0  0  0  0  0
   -0.7520    0.8337   -0.9220 C   0  0  1  0  0  3  0  0  0  0  0  0
   -0.2207    2.0599   -0.3654 C   0  0  0  0  0  0  0  0  0  0  0  0
   -0.6252    2.8371    0.7629 C   0  0  0  0  0  0  0  0  0  0  0  0
    0.0698    3.9986    1.0573 C   0  0  0  0  0  0  0  0  0  0  0  0
    1.1821    4.4193    0.2638 C   0  0  0  0  0  0  0  0  0  0  0  0
    1.6143    3.6828   -0.8267 C   0  0  0  0  0  0  0  0  0  0  0  0
    0.9282    2.4793   -1.1586 C   0  0  0  0  0  0  0  0  0  0  0  0
    1.1285    1.4903   -2.1726 C   0  0  0  0  0  0  0  0  0  0  0  0
    0.0963    0.5172   -2.0396 C   0  0  0  0  0  0  0  0  0  0  0  0
   -0.6325   -1.0239    0.7737 C   0  0  0  0  0  0  0  0  0  0  0  0
    0.1671   -2.0989    0.2252 C   0  0  0  0  0  0  0  0  0  0  0  0
   -0.0025   -2.9013   -0.9449 C   0  0  0  0  0  0  0  0  0  0  0  0
    0.9222   -3.8977   -1.2120 C   0  0  0  0  0  0  0  0  0  0  0  0
    2.0375   -4.1266   -0.3476 C   0  0  0  0  0  0  0  0  0  0  0  0
    2.2438   -3.3594    0.7868 C   0  0  0  0  0  0  0  0  0  0  0  0
    1.3184   -2.3204    1.0917 C   0  0  0  0  0  0  0  0  0  0  0  0
    1.2577   -1.3468    2.1376 C   0  0  0  0  0  0  0  0  0  0  0  0
    0.0635   -0.5908    1.9555 C   0  0  0  0  0  3  0  0  0  0  0  0
   -3.8513   -1.0991    0.7766 C   0  0  0  0  0  0  0  0  0  0  0  0
   -3.6673   -0.7977    2.2684 C   0  0  0  0  0  0  0  0  0  0  0  0
   -3.5834   -2.5706    0.4422 C   0  0  0  0  0  0  0  0  0  0  0  0
   -3.8058    0.7365   -0.9493 C   0  0  0  0  0  0  0  0  0  0  0  0
   -4.6258   -0.0185   -2.0026 C   0  0  0  0  0  0  0  0  0  0  0  0
   -4.6568    1.7273   -0.1457 C   0  0  0  0  0  0  0  0  0  0  0  0
   -1.4899    2.5217    1.3673 H   0  0  0  0  0  0  0  0  0  0  0  0
   -0.2351    4.6141    1.9170 H   0  0  0  0  0  0  0  0  0  0  0  0
    1.7058    5.3486    0.5336 H   0  0  0  0  0  0  0  0  0  0  0  0
    2.4785    4.0071   -1.4247 H   0  0  0  0  0  0  0  0  0  0  0  0
    1.9224    1.4874   -2.9277 H   0  0  0  0  0  0  0  0  0  0  0  0
    0.0018   -0.3784   -2.6685 H   0  0  0  0  0  0  0  0  0  0  0  0
   -0.8728   -2.7432   -1.6002 H   0  0  0  0  0  0  0  0  0  0  0  0
    0.7996   -4.5307   -2.1036 H   0  0  0  0  0  0  0  0  0  0  0  0
    2.7472   -4.9295   -0.5971 H   0  0  0  0  0  0  0  0  0  0  0  0
    3.1108   -3.5335    1.4406 H   0  0  0  0  0  0  0  0  0  0  0  0
    1.9860   -1.2153    2.9454 H   0  0  0  0  0  0  0  0  0  0  0  0
   -0.2437    0.2493    2.5933 H   0  0  0  0  0  0  0  0  0  0  0  0
   -4.9139   -0.8952    0.5294 H   0  0  0  0  0  0  0  0  0  0  0  0
   -2.6340   -1.0277    2.5935 H   0  0  0  0  0  0  0  0  0  0  0  0
   -4.3615   -1.4121    2.8764 H   0  0  0  0  0  0  0  0  0  0  0  0
   -3.8711    0.2696    2.4848 H   0  0  0  0  0  0  0  0  0  0  0  0
   -4.2679   -3.2279    1.0153 H   0  0  0  0  0  0  0  0  0  0  0  0
   -2.5439   -2.8561    0.6966 H   0  0  0  0  0  0  0  0  0  0  0  0
   -3.7410   -2.7652   -0.6371 H   0  0  0  0  0  0  0  0  0  0  0  0
   -3.0286    1.3197   -1.4844 H   0  0  0  0  0  0  0  0  0  0  0  0
   -5.1052    0.6980   -2.6992 H   0  0  0  0  0  0  0  0  0  0  0  0
   -5.4352   -0.6263   -1.5476 H   0  0  0  0  0  0  0  0  0  0  0  0
   -3.9783   -0.6948   -2.5952 H   0  0  0  0  0  0  0  0  0  0  0  0
   -5.1422    2.4536   -0.8276 H   0  0  0  0  0  0  0  0  0  0  0  0
   -4.0303    2.2962    0.5696 H   0  0  0  0  0  0  0  0  0  0  0  0
   -5.4630    1.2213    0.4249 H   0  0  0  0  0  0  0  0  0  0  0  0
  1 21  1  0  0  0  0
  2  1  1  0  0  0  0
  2 12  1  0  0  0  0
  3  4  1  0  0  0  0
  3  2  1  1  0  0  0
  4  5  1  0  0  0  0
  5  6  2  0  0  0  0
  5 27  1  0  0  0  0
  6 28  1  0  0  0  0
  7 29  1  0  0  0  0
  7  6  1  0  0  0  0
  8  7  2  0  0  0  0
  9  8  1  0  0  0  0
  9  4  2  0  0  0  0
 10 11  2  0  0  0  0
 10  9  1  0  0  0  0
 11  3  1  0  0  0  0
 12 20  1  0  0  0  0
 13 12  2  0  0  0  0
 13 18  1  0  0  0  0
 14 13  1  0  0  0  0
 15 14  2  0  0  0  0
 15 16  1  0  0  0  0
 16 17  2  0  0  0  0
 17 18  1  0  0  0  0
 17 36  1  0  0  0  0
 18 19  2  0  0  0  0
 19 37  1  0  0  0  0
 20 19  1  0  0  0  0
 20 38  1  0  0  0  0
 21 22  1  0  0  0  0
 22 42  1  0  0  0  0
 22 40  1  0  0  0  0
 22 41  1  0  0  0  0
 23 44  1  0  0  0  0
 23 21  1  0  0  0  0
 23 43  1  0  0  0  0
 24 26  1  0  0  0  0
 24  1  1  0  0  0  0
 25 48  1  0  0  0  0
 25 24  1  0  0  0  0
 26 52  1  0  0  0  0
 26 51  1  0  0  0  0
 30  8  1  0  0  0  0
 31 10  1  0  0  0  0
 32 11  1  0  0  0  0
 33 14  1  0  0  0  0
 34 15  1  0  0  0  0
 35 16  1  0  0  0  0
 39 21  1  0  0  0  0
 45 23  1  0  0  0  0
 46 24  1  0  0  0  0
 47 25  1  0  0  0  0
 49 25  1  0  0  0  0
 50 26  1  0  0  0  0
M  END
