5
 OpenBabel05122313113D

 31 31  0  0  1  0  0  0  0  0999 V2000
    1.1717    0.4902   -0.4799 N   0  0  0  0  0  0  0  0  0  0  0  0
    0.5335    1.5656    0.3345 B   0  0  0  0  0  0  0  0  0  0  0  0
   -0.8422    1.7300   -0.3318 C   0  0  0  0  0  0  0  0  0  0  0  0
   -0.8455    0.9447   -1.5345 C   0  0  1  0  0  3  0  0  0  0  0  0
    0.3338    0.1691   -1.5627 C   0  0  0  0  0  3  0  0  0  0  0  0
    0.6318   -0.5459   -2.3333 H   0  0  0  0  0  0  0  0  0  0  0  0
    1.1334    2.3844    1.5373 C   0  0  0  0  0  0  0  0  0  0  0  0
    1.6178    3.3108    1.1572 H   0  0  0  0  0  0  0  0  0  0  0  0
    1.8792    1.8481    2.1531 H   0  0  0  0  0  0  0  0  0  0  0  0
    0.3188    2.7089    2.2156 H   0  0  0  0  0  0  0  0  0  0  0  0
   -1.9746    2.6154    0.0992 C   0  0  0  0  0  0  0  0  0  0  0  0
   -1.8837    3.6217   -0.3659 H   0  0  0  0  0  0  0  0  0  0  0  0
   -1.9694    2.7648    1.1968 H   0  0  0  0  0  0  0  0  0  0  0  0
   -2.9663    2.2057   -0.1791 H   0  0  0  0  0  0  0  0  0  0  0  0
   -1.9011    0.9047   -2.5979 C   0  0  0  0  0  0  0  0  0  0  0  0
   -1.7893    1.7852   -3.2656 H   0  0  0  0  0  0  0  0  0  0  0  0
   -2.9179    0.9369   -2.1629 H   0  0  0  0  0  0  0  0  0  0  0  0
   -1.8219   -0.0075   -3.2199 H   0  0  0  0  0  0  0  0  0  0  0  0
    2.5845   -0.0328   -0.3800 C   0  0  0  0  0  0  0  0  0  0  0  0
    3.5196    1.1812   -0.5411 C   0  0  0  0  0  0  0  0  0  0  0  0
    3.3268    1.6993   -1.5018 H   0  0  0  0  0  0  0  0  0  0  0  0
    4.5745    0.8423   -0.5369 H   0  0  0  0  0  0  0  0  0  0  0  0
    3.3911    1.9092    0.2804 H   0  0  0  0  0  0  0  0  0  0  0  0
    2.8004   -0.7131    0.9816 C   0  0  0  0  0  0  0  0  0  0  0  0
    2.1676   -1.6164    1.0720 H   0  0  0  0  0  0  0  0  0  0  0  0
    2.5582   -0.0414    1.8245 H   0  0  0  0  0  0  0  0  0  0  0  0
    3.8616   -1.0172    1.0742 H   0  0  0  0  0  0  0  0  0  0  0  0
    2.8861   -1.0454   -1.4951 C   0  0  0  0  0  0  0  0  0  0  0  0
    2.2029   -1.9155   -1.4507 H   0  0  0  0  0  0  0  0  0  0  0  0
    3.9188   -1.4193   -1.3571 H   0  0  0  0  0  0  0  0  0  0  0  0
    2.8334   -0.5858   -2.5021 H   0  0  0  0  0  0  0  0  0  0  0  0
  1 19  1  0  0  0  0
  1  2  1  0  0  0  0
  2  7  1  0  0  0  0
  3 11  1  0  0  0  0
  3  2  2  0  0  0  0
  4 15  1  1  0  0  0
  4  3  1  0  0  0  0
  5  4  1  0  0  0  0
  5  1  1  0  0  0  0
  6  5  1  0  0  0  0
  7  9  1  0  0  0  0
  7 10  1  0  0  0  0
  8  7  1  0  0  0  0
 11 13  1  0  0  0  0
 12 11  1  0  0  0  0
 14 11  1  0  0  0  0
 15 17  1  0  0  0  0
 16 15  1  0  0  0  0
 18 15  1  0  0  0  0
 19 24  1  0  0  0  0
 20 22  1  0  0  0  0
 20 19  1  0  0  0  0
 20 23  1  0  0  0  0
 21 20  1  0  0  0  0
 24 25  1  0  0  0  0
 24 27  1  0  0  0  0
 24 26  1  0  0  0  0
 28 29  1  0  0  0  0
 28 30  1  0  0  0  0
 28 19  1  0  0  0  0
 31 28  1  0  0  0  0
M  END
