1
 OpenBabel05122313113D

 26 27  0  0  0  0  0  0  0  0999 V2000
   -0.5824    0.8168    0.3158 C   0  0  0  0  0  2  0  0  0  0  0  0
   -0.8569    1.9847    0.8793 O   0  0  0  0  0  0  0  0  0  0  0  0
    0.2174    2.9031    1.2908 C   0  0  0  0  0  0  0  0  0  0  0  0
    0.9253    2.3178    1.9160 H   0  0  0  0  0  0  0  0  0  0  0  0
   -0.3029    3.6310    1.9390 H   0  0  0  0  0  0  0  0  0  0  0  0
    0.9173    3.5945    0.1549 C   0  0  0  0  0  0  0  0  0  0  0  0
    1.0451    4.6844    0.2575 H   0  0  0  0  0  0  0  0  0  0  0  0
    1.3812    2.9832   -0.9530 C   0  0  0  0  0  0  0  0  0  0  0  0
    1.8626    3.5982   -1.7324 H   0  0  0  0  0  0  0  0  0  0  0  0
    1.2554    1.5144   -1.2551 C   0  0  0  0  0  0  0  0  0  0  0  0
    2.2038    1.1316   -1.6850 H   0  0  0  0  0  0  0  0  0  0  0  0
    0.4985    1.3902   -2.0662 H   0  0  0  0  0  0  0  0  0  0  0  0
    0.8328    0.6389   -0.0898 C   0  0  0  0  0  0  0  0  0  0  0  0
    1.6068   -0.3012    0.5199 C   0  0  0  0  0  0  0  0  0  0  0  0
    1.1011   -0.9611    1.2464 H   0  0  0  0  0  0  0  0  0  0  0  0
    3.0344   -0.5733    0.3049 C   0  0  0  0  0  0  0  0  0  0  0  0
    3.9852    0.4515    0.0790 C   0  0  0  0  0  0  0  0  0  0  0  0
    3.6637    1.5037    0.1016 H   0  0  0  0  0  0  0  0  0  0  0  0
    5.3366    0.1403   -0.1225 C   0  0  0  0  0  0  0  0  0  0  0  0
    6.0633    0.9503   -0.2880 H   0  0  0  0  0  0  0  0  0  0  0  0
    5.7674   -1.1961   -0.0977 C   0  0  0  0  0  0  0  0  0  0  0  0
    6.8294   -1.4377   -0.2552 H   0  0  0  0  0  0  0  0  0  0  0  0
    4.8385   -2.2214    0.1459 C   0  0  0  0  0  0  0  0  0  0  0  0
    5.1699   -3.2705    0.1757 H   0  0  0  0  0  0  0  0  0  0  0  0
    3.4889   -1.9131    0.3554 C   0  0  0  0  0  0  0  0  0  0  0  0
    2.7600   -2.7177    0.5392 H   0  0  0  0  0  0  0  0  0  0  0  0
  1  2  1  0  0  0  0
  2  3  1  0  0  0  0
  3  4  1  0  0  0  0
  3  5  1  0  0  0  0
  6  7  1  0  0  0  0
  6  3  1  0  0  0  0
  8  6  2  0  0  0  0
  9  8  1  0  0  0  0
 10  8  1  0  0  0  0
 10 13  1  0  0  0  0
 11 10  1  0  0  0  0
 12 10  1  0  0  0  0
 13  1  1  0  0  0  0
 13 14  2  0  0  0  0
 14 15  1  0  0  0  0
 16 25  1  0  0  0  0
 16 14  1  0  0  0  0
 17 18  1  0  0  0  0
 17 16  2  0  0  0  0
 19 21  2  0  0  0  0
 19 17  1  0  0  0  0
 20 19  1  0  0  0  0
 21 23  1  0  0  0  0
 22 21  1  0  0  0  0
 23 24  1  0  0  0  0
 23 25  2  0  0  0  0
 25 26  1  0  0  0  0
M  END
