1
 OpenBabel05122313113D

 22 24  0  0  1  0  0  0  0  0999 V2000
   -2.4552   -0.4825    0.6404 C   0  0  0  0  0  3  0  0  0  0  0  0
   -2.3960   -1.4187    1.2178 H   0  0  0  0  0  0  0  0  0  0  0  0
   -2.4380   -0.4066   -0.7528 C   0  0  0  0  0  3  0  0  0  0  0  0
   -2.3708   -1.2738   -1.4282 H   0  0  0  0  0  0  0  0  0  0  0  0
   -3.0811    0.9124   -1.1275 C   0  0  2  0  0  0  0  0  0  0  0  0
   -2.8836    1.2854   -2.1480 H   0  0  0  0  0  0  0  0  0  0  0  0
   -2.6835    1.8115    0.0638 C   0  0  0  0  0  0  0  0  0  0  0  0
   -1.5989    2.0552    0.0899 H   0  0  0  0  0  0  0  0  0  0  0  0
   -3.2661    2.7518    0.1069 H   0  0  0  0  0  0  0  0  0  0  0  0
   -3.1089    0.7915    1.1448 C   0  0  1  0  0  0  0  0  0  0  0  0
   -2.9166    1.0527    2.2010 H   0  0  0  0  0  0  0  0  0  0  0  0
   -4.6352    0.6458    0.7791 C   0  0  2  0  0  0  0  0  0  0  0  0
   -5.1483    1.5316    1.1997 H   0  0  0  0  0  0  0  0  0  0  0  0
   -5.3642   -0.6639    1.1747 C   0  0  0  0  0  0  0  0  0  0  0  0
   -4.7832   -1.2961    1.8819 H   0  0  0  0  0  0  0  0  0  0  0  0
   -6.3213   -0.4509    1.6979 H   0  0  0  0  0  0  0  0  0  0  0  0
   -5.6209   -1.3539   -0.1427 C   0  0  0  0  0  0  0  0  0  0  0  0
   -6.1000   -2.3431   -0.2081 H   0  0  0  0  0  0  0  0  0  0  0  0
   -5.2443   -0.6133   -1.2050 C   0  0  0  0  0  0  0  0  0  0  0  0
   -5.3786   -0.9072   -2.2570 H   0  0  0  0  0  0  0  0  0  0  0  0
   -4.6188    0.6931   -0.7907 C   0  0  2  0  0  0  0  0  0  0  0  0
   -5.1670    1.5684   -1.2002 H   0  0  0  0  0  0  0  0  0  0  0  0
  1 10  1  0  0  0  0
  1  2  1  0  0  0  0
  3  1  1  0  0  0  0
  4  3  1  0  0  0  0
  5  6  1  6  0  0  0
  5 21  1  0  0  0  0
  5  3  1  0  0  0  0
  5  7  1  0  0  0  0
  7  8  1  0  0  0  0
  7  9  1  0  0  0  0
  7 10  1  0  0  0  0
 10 11  1  1  0  0  0
 12 10  1  0  0  0  0
 12 14  1  0  0  0  0
 12 13  1  1  0  0  0
 14 16  1  0  0  0  0
 14 15  1  0  0  0  0
 17 14  1  0  0  0  0
 18 17  1  0  0  0  0
 19 21  1  0  0  0  0
 19 17  2  0  0  0  0
 20 19  1  0  0  0  0
 21 22  1  6  0  0  0
 21 12  1  0  0  0  0
M  END
