2
 OpenBabel05122313113D

 13 12  0  0  0  0  0  0  0  0999 V2000
    2.2805   -0.8281   -0.5524 O   0  0  0  0  0  0  0  0  0  0  0  0
    0.9731   -1.0784   -0.4066 C   0  0  0  0  0  2  0  0  0  0  0  0
    0.7949   -2.4854   -0.9571 C   0  0  0  0  0  0  0  0  0  0  0  0
    0.4984   -2.4157   -2.0261 H   0  0  0  0  0  0  0  0  0  0  0  0
    0.0104   -3.0568   -0.4335 H   0  0  0  0  0  0  0  0  0  0  0  0
    1.7523   -3.0429   -0.9157 H   0  0  0  0  0  0  0  0  0  0  0  0
    2.9044    0.4235   -0.2126 C   0  0  0  0  0  0  0  0  0  0  0  0
    2.6914    0.6603    0.8486 H   0  0  0  0  0  0  0  0  0  0  0  0
    2.4628    1.2266   -0.8357 H   0  0  0  0  0  0  0  0  0  0  0  0
    4.3923    0.2742   -0.4645 C   0  0  0  0  0  0  0  0  0  0  0  0
    4.9114    1.2222   -0.2211 H   0  0  0  0  0  0  0  0  0  0  0  0
    4.5945    0.0305   -1.5264 H   0  0  0  0  0  0  0  0  0  0  0  0
    4.8240   -0.5292    0.1646 H   0  0  0  0  0  0  0  0  0  0  0  0
  1  2  1  0  0  0  0
  1  7  1  0  0  0  0
  3  6  1  0  0  0  0
  3  5  1  0  0  0  0
  3  2  1  0  0  0  0
  4  3  1  0  0  0  0
  7  8  1  0  0  0  0
  9  7  1  0  0  0  0
 10 11  1  0  0  0  0
 10  7  1  0  0  0  0
 10 13  1  0  0  0  0
 12 10  1  0  0  0  0
M  END
