3
 OpenBabel05122313113D

 22 21  0  0  0  0  0  0  0  0999 V2000
    2.2760   -0.5528   -2.0405 N   0  0  0  0  0  0  0  0  0  0  0  0
    2.8507   -1.0495    0.1169 N   0  0  0  0  0  0  0  0  0  0  0  0
    1.9156   -0.6048   -0.7368 C   0  0  0  0  0  2  0  0  0  0  0  0
    3.5810   -0.8902   -2.5861 C   0  0  0  0  0  0  0  0  0  0  0  0
    2.8069   -1.1469    1.6081 C   0  0  0  0  0  0  0  0  0  0  0  0
    1.6295   -2.0222    2.0593 C   0  0  0  0  0  0  0  0  0  0  0  0
    2.7073    0.2577    2.2242 C   0  0  0  0  0  0  0  0  0  0  0  0
    4.1333   -1.8106    2.0108 C   0  0  0  0  0  0  0  0  0  0  0  0
    1.5727   -0.1699   -2.6722 H   0  0  0  0  0  0  0  0  0  0  0  0
    3.7747   -1.2686   -0.2706 H   0  0  0  0  0  0  0  0  0  0  0  0
    3.5642   -0.7507   -3.6814 H   0  0  0  0  0  0  0  0  0  0  0  0
    4.3841   -0.2394   -2.1738 H   0  0  0  0  0  0  0  0  0  0  0  0
    3.8482   -1.9508   -2.3855 H   0  0  0  0  0  0  0  0  0  0  0  0
    1.6534   -2.1427    3.1596 H   0  0  0  0  0  0  0  0  0  0  0  0
    0.6631   -1.5508    1.7882 H   0  0  0  0  0  0  0  0  0  0  0  0
    1.6802   -3.0296    1.5998 H   0  0  0  0  0  0  0  0  0  0  0  0
    2.7356    0.1894    3.3292 H   0  0  0  0  0  0  0  0  0  0  0  0
    3.5505    0.8970    1.8953 H   0  0  0  0  0  0  0  0  0  0  0  0
    1.7613    0.7519    1.9289 H   0  0  0  0  0  0  0  0  0  0  0  0
    4.2267   -2.8251    1.5717 H   0  0  0  0  0  0  0  0  0  0  0  0
    5.0024   -1.1997    1.6889 H   0  0  0  0  0  0  0  0  0  0  0  0
    4.1894   -1.9115    3.1108 H   0  0  0  0  0  0  0  0  0  0  0  0
  1  3  1  0  0  0  0
  2  5  1  0  0  0  0
  3  2  1  0  0  0  0
  4 13  1  0  0  0  0
  4 12  1  0  0  0  0
  4  1  1  0  0  0  0
  5  8  1  0  0  0  0
  5  6  1  0  0  0  0
  5  7  1  0  0  0  0
  6 14  1  0  0  0  0
  7 17  1  0  0  0  0
  8 22  1  0  0  0  0
  9  1  1  0  0  0  0
 10  2  1  0  0  0  0
 11  4  1  0  0  0  0
 15  6  1  0  0  0  0
 16  6  1  0  0  0  0
 18  7  1  0  0  0  0
 19  7  1  0  0  0  0
 20  8  1  0  0  0  0
 21  8  1  0  0  0  0
M  END
