8
 OpenBabel05122313113D

 50 51  0  0  1  0  0  0  0  0999 V2000
   -2.1259   -1.2109   -0.2859 N   0  0  1  0  0  0  0  0  0  0  0  0
   -2.4327   -1.9530    0.9648 C   0  0  0  0  0  0  0  0  0  0  0  0
   -3.1740   -2.7640    0.7809 H   0  0  0  0  0  0  0  0  0  0  0  0
   -2.8916   -1.2514    1.6851 H   0  0  0  0  0  0  0  0  0  0  0  0
   -1.1533   -2.5165    1.6032 C   0  0  0  0  0  0  0  0  0  0  0  0
   -1.4024   -3.0023    2.5711 H   0  0  0  0  0  0  0  0  0  0  0  0
   -0.7103   -3.3084    0.9606 H   0  0  0  0  0  0  0  0  0  0  0  0
   -0.1593   -1.4480    1.7943 C   0  0  0  0  0  2  0  0  0  0  0  0
    0.6926   -0.5836    2.0800 C   0  0  0  0  0  2  0  0  0  0  0  0
    1.7891    0.2526    2.5755 C   0  0  0  0  0  0  0  0  0  0  0  0
    1.9821    0.0300    3.6476 H   0  0  0  0  0  0  0  0  0  0  0  0
    1.4907    1.3224    2.5349 H   0  0  0  0  0  0  0  0  0  0  0  0
    3.0849    0.0179    1.7686 C   0  0  0  0  0  0  0  0  0  0  0  0
    3.8886    0.6795    2.1769 H   0  0  0  0  0  0  0  0  0  0  0  0
    3.4159   -1.0227    1.9564 H   0  0  0  0  0  0  0  0  0  0  0  0
    2.9048    0.1839    0.3334 N   0  0  2  0  0  0  0  0  0  0  0  0
    3.6308   -0.7823   -0.4824 C   0  0  0  0  0  0  0  0  0  0  0  0
    4.6416   -1.0076   -0.0645 H   0  0  0  0  0  0  0  0  0  0  0  0
    3.8083   -0.3520   -1.4877 H   0  0  0  0  0  0  0  0  0  0  0  0
    2.8538   -2.1055   -0.6481 C   0  0  0  0  0  0  0  0  0  0  0  0
    3.4725   -2.8234   -1.2294 H   0  0  0  0  0  0  0  0  0  0  0  0
    2.7013   -2.5734    0.3496 H   0  0  0  0  0  0  0  0  0  0  0  0
    1.5558   -1.9326   -1.2916 C   0  0  0  0  0  0  0  0  0  0  0  0
    0.4662   -1.7540   -1.8292 C   0  0  0  0  0  0  0  0  0  0  0  0
   -0.8675   -1.6992   -2.4268 C   0  0  0  0  0  0  0  0  0  0  0  0
   -0.9105   -2.3685   -3.3134 H   0  0  0  0  0  0  0  0  0  0  0  0
   -1.0872   -0.6776   -2.8072 H   0  0  0  0  0  0  0  0  0  0  0  0
   -1.9416   -2.1499   -1.4253 C   0  0  0  0  0  0  0  0  0  0  0  0
   -2.9121   -2.3037   -1.9492 H   0  0  0  0  0  0  0  0  0  0  0  0
   -1.6397   -3.1345   -1.0202 H   0  0  0  0  0  0  0  0  0  0  0  0
   -3.1614   -0.2124   -0.6318 C   0  0  0  0  0  0  0  0  0  0  0  0
   -4.1318   -0.7203   -0.8565 H   0  0  0  0  0  0  0  0  0  0  0  0
   -2.8390    0.2748   -1.5756 H   0  0  0  0  0  0  0  0  0  0  0  0
   -3.4390    0.8536    0.4268 C   0  0  0  0  0  0  0  0  0  0  0  0
   -3.9244    0.4276    1.3269 H   0  0  0  0  0  0  0  0  0  0  0  0
   -4.1582    1.5941    0.0228 H   0  0  0  0  0  0  0  0  0  0  0  0
   -1.9786    1.7434    1.0794 S   0  0  0  0  0  0  0  0  0  0  0  0
   -1.6732    2.9865   -0.2436 C   0  0  0  0  0  0  0  0  0  0  0  0
   -2.2875    2.7205   -1.1280 H   0  0  0  0  0  0  0  0  0  0  0  0
   -2.0183    3.9743    0.1229 H   0  0  0  0  0  0  0  0  0  0  0  0
   -0.2001    3.0681   -0.6171 C   0  0  0  0  0  0  0  0  0  0  0  0
    0.4255    3.2971    0.2706 H   0  0  0  0  0  0  0  0  0  0  0  0
   -0.0457    3.8703   -1.3677 H   0  0  0  0  0  0  0  0  0  0  0  0
    0.3547    1.4807   -1.3527 S   0  0  0  0  0  0  0  0  0  0  0  0
    2.1638    1.7653   -1.4399 C   0  0  0  0  0  0  0  0  0  0  0  0
    2.5036    1.0674   -2.2300 H   0  0  0  0  0  0  0  0  0  0  0  0
    2.3140    2.7911   -1.8325 H   0  0  0  0  0  0  0  0  0  0  0  0
    2.9358    1.5549   -0.1373 C   0  0  0  0  0  0  0  0  0  0  0  0
    3.9797    1.9323   -0.3041 H   0  0  0  0  0  0  0  0  0  0  0  0
    2.5064    2.2076    0.6513 H   0  0  0  0  0  0  0  0  0  0  0  0
  1 28  1  6  0  0  0
  1  2  1  0  0  0  0
  2  5  1  0  0  0  0
  2  4  1  0  0  0  0
  3  2  1  0  0  0  0
  5  8  1  0  0  0  0
  5  6  1  0  0  0  0
  7  5  1  0  0  0  0
  8  9  1  0  0  0  0
  9 10  1  0  0  0  0
 10 11  1  0  0  0  0
 12 10  1  0  0  0  0
 13 15  1  0  0  0  0
 13 14  1  0  0  0  0
 13 10  1  0  0  0  0
 16 17  1  6  0  0  0
 16 13  1  0  0  0  0
 17 18  1  0  0  0  0
 19 17  1  0  0  0  0
 20 17  1  0  0  0  0
 20 22  1  0  0  0  0
 21 20  1  0  0  0  0
 23 20  1  0  0  0  0
 24 23  3  0  0  0  0
 25 24  1  0  0  0  0
 25 28  1  0  0  0  0
 26 25  1  0  0  0  0
 27 25  1  0  0  0  0
 28 30  1  0  0  0  0
 29 28  1  0  0  0  0
 31  1  1  0  0  0  0
 31 34  1  0  0  0  0
 32 31  1  0  0  0  0
 33 31  1  0  0  0  0
 34 37  1  0  0  0  0
 34 35  1  0  0  0  0
 36 34  1  0  0  0  0
 38 40  1  0  0  0  0
 38 37  1  0  0  0  0
 39 38  1  0  0  0  0
 41 38  1  0  0  0  0
 41 42  1  0  0  0  0
 43 41  1  0  0  0  0
 44 41  1  0  0  0  0
 45 44  1  0  0  0  0
 45 48  1  0  0  0  0
 46 45  1  0  0  0  0
 47 45  1  0  0  0  0
 48 16  1  0  0  0  0
 48 50  1  0  0  0  0
 49 48  1  0  0  0  0
M  END
