4
 OpenBabel05122313113D

 44 46  0  0  1  0  0  0  0  0999 V2000
    0.0397   -0.7298   -0.8440 C   0  0  0  0  0  0  0  0  0  0  0  0
   -1.1215   -1.4940   -1.0304 C   0  0  0  0  0  0  0  0  0  0  0  0
   -2.3421   -0.7281   -1.2765 C   0  0  1  0  0  3  0  0  0  0  0  0
   -2.3441    0.7094   -1.2829 C   0  0  1  0  0  3  0  0  0  0  0  0
   -1.1262    1.4830   -1.0485 C   0  0  0  0  0  0  0  0  0  0  0  0
    0.0380    0.7269   -0.8490 C   0  0  0  0  0  0  0  0  0  0  0  0
    1.5210    0.7143   -0.5776 C   0  0  0  0  0  0  0  0  0  0  0  0
    2.6611    1.4726   -0.3449 C   0  0  0  0  0  0  0  0  0  0  0  0
    3.8526    0.7106   -0.0914 C   0  0  0  0  0  0  0  0  0  0  0  0
    3.8539   -0.7099   -0.0943 C   0  0  0  0  0  0  0  0  0  0  0  0
    2.6633   -1.4719   -0.3503 C   0  0  0  0  0  0  0  0  0  0  0  0
    1.5221   -0.7134   -0.5765 C   0  0  0  0  0  0  0  0  0  0  0  0
   -1.1224   -2.9973   -0.9664 C   0  0  0  0  0  0  0  0  0  0  0  0
   -1.9708   -3.3844   -0.3708 H   0  0  0  0  0  0  0  0  0  0  0  0
   -0.1962   -3.3616   -0.4881 H   0  0  0  0  0  0  0  0  0  0  0  0
   -1.1871   -3.4438   -1.9811 H   0  0  0  0  0  0  0  0  0  0  0  0
   -3.6380   -1.4505   -1.5590 C   0  0  0  0  0  0  0  0  0  0  0  0
   -3.5450   -2.5411   -1.4229 H   0  0  0  0  0  0  0  0  0  0  0  0
   -3.9638   -1.2700   -2.6055 H   0  0  0  0  0  0  0  0  0  0  0  0
   -4.4553   -1.1037   -0.8984 H   0  0  0  0  0  0  0  0  0  0  0  0
   -3.6423    1.4266   -1.5666 C   0  0  0  0  0  0  0  0  0  0  0  0
   -3.5732    2.5092   -1.3660 H   0  0  0  0  0  0  0  0  0  0  0  0
   -4.4729    1.0289   -0.9538 H   0  0  0  0  0  0  0  0  0  0  0  0
   -3.9315    1.3005   -2.6321 H   0  0  0  0  0  0  0  0  0  0  0  0
   -1.1381    2.9872   -1.0145 C   0  0  0  0  0  0  0  0  0  0  0  0
   -1.9525    3.3789   -0.3754 H   0  0  0  0  0  0  0  0  0  0  0  0
   -1.2719    3.4105   -2.0321 H   0  0  0  0  0  0  0  0  0  0  0  0
   -0.1878    3.3716   -0.6047 H   0  0  0  0  0  0  0  0  0  0  0  0
    2.6612    2.9793   -0.3476 C   0  0  0  0  0  0  0  0  0  0  0  0
    2.8699    3.3911    0.6623 H   0  0  0  0  0  0  0  0  0  0  0  0
    1.6824    3.3755   -0.6715 H   0  0  0  0  0  0  0  0  0  0  0  0
    3.4279    3.3943   -1.0330 H   0  0  0  0  0  0  0  0  0  0  0  0
    5.1524    1.4241    0.1940 C   0  0  0  0  0  0  0  0  0  0  0  0
    5.0457    2.5225    0.1959 H   0  0  0  0  0  0  0  0  0  0  0  0
    5.9341    1.1657   -0.5523 H   0  0  0  0  0  0  0  0  0  0  0  0
    5.5655    1.1309    1.1825 H   0  0  0  0  0  0  0  0  0  0  0  0
    5.1544   -1.4228    0.1891 C   0  0  0  0  0  0  0  0  0  0  0  0
    5.0492   -2.5214    0.1834 H   0  0  0  0  0  0  0  0  0  0  0  0
    5.5640   -1.1360    1.1808 H   0  0  0  0  0  0  0  0  0  0  0  0
    5.9378   -1.1579   -0.5531 H   0  0  0  0  0  0  0  0  0  0  0  0
    2.6623   -2.9786   -0.3653 C   0  0  0  0  0  0  0  0  0  0  0  0
    2.8300   -3.3996    0.6487 H   0  0  0  0  0  0  0  0  0  0  0  0
    3.4557   -3.3884   -1.0225 H   0  0  0  0  0  0  0  0  0  0  0  0
    1.6970   -3.3701   -0.7330 H   0  0  0  0  0  0  0  0  0  0  0  0
  1 12  1  0  0  0  0
  2 13  1  0  0  0  0
  2  1  2  0  0  0  0
  3 17  1  6  0  0  0
  3  2  1  0  0  0  0
  4 21  1  6  0  0  0
  4  3  1  0  0  0  0
  4  5  1  0  0  0  0
  5 25  1  0  0  0  0
  5  6  2  0  0  0  0
  6  1  1  0  0  0  0
  6  7  1  0  0  0  0
  7 12  2  0  0  0  0
  7  8  1  0  0  0  0
  8  9  2  0  0  0  0
  9 33  1  0  0  0  0
 10  9  1  0  0  0  0
 10 37  1  0  0  0  0
 11 10  2  0  0  0  0
 12 11  1  0  0  0  0
 13 15  1  0  0  0  0
 13 14  1  0  0  0  0
 16 13  1  0  0  0  0
 17 18  1  0  0  0  0
 17 20  1  0  0  0  0
 19 17  1  0  0  0  0
 21 22  1  0  0  0  0
 21 23  1  0  0  0  0
 24 21  1  0  0  0  0
 25 28  1  0  0  0  0
 25 26  1  0  0  0  0
 27 25  1  0  0  0  0
 29  8  1  0  0  0  0
 29 30  1  0  0  0  0
 31 29  1  0  0  0  0
 32 29  1  0  0  0  0
 33 34  1  0  0  0  0
 33 36  1  0  0  0  0
 35 33  1  0  0  0  0
 37 39  1  0  0  0  0
 38 37  1  0  0  0  0
 40 37  1  0  0  0  0
 41 11  1  0  0  0  0
 41 42  1  0  0  0  0
 43 41  1  0  0  0  0
 44 41  1  0  0  0  0
M  END
