1
 OpenBabel05122313113D

 66 69  0  0  1  0  0  0  0  0999 V2000
    0.8058    0.8249   -0.0963 C   0  0  0  0  0  2  0  0  0  0  0  0
   -0.5512    1.2459   -0.0953 C   0  0  2  0  0  3  0  0  0  0  0  0
   -1.0059    2.6087    0.2879 C   0  0  0  0  0  0  0  0  0  0  0  0
   -0.0163    3.5891   -1.7824 C   0  0  0  0  0  0  0  0  0  0  0  0
   -0.7691    4.0704   -2.4474 H   0  0  0  0  0  0  0  0  0  0  0  0
    0.0752    2.5258   -2.0681 H   0  0  0  0  0  0  0  0  0  0  0  0
    0.9595    4.0920   -1.9523 H   0  0  0  0  0  0  0  0  0  0  0  0
   -0.7603    5.0261    0.0731 C   0  0  0  0  0  0  0  0  0  0  0  0
   -1.0332    4.9764    1.1421 H   0  0  0  0  0  0  0  0  0  0  0  0
   -1.6283    5.4484   -0.4830 H   0  0  0  0  0  0  0  0  0  0  0  0
    0.1072    5.7024   -0.0717 H   0  0  0  0  0  0  0  0  0  0  0  0
    3.1778    1.5124    0.0087 C   0  0  0  0  0  0  0  0  0  0  0  0
    3.8571    1.0731   -1.1533 C   0  0  0  0  0  0  0  0  0  0  0  0
    5.2424    0.8444   -1.0575 C   0  0  0  0  0  0  0  0  0  0  0  0
    5.7867    0.4949   -1.9485 H   0  0  0  0  0  0  0  0  0  0  0  0
    5.9299    1.0572    0.1446 C   0  0  0  0  0  0  0  0  0  0  0  0
    7.0135    0.8723    0.1974 H   0  0  0  0  0  0  0  0  0  0  0  0
    5.2393    1.5000    1.2807 C   0  0  0  0  0  0  0  0  0  0  0  0
    5.7764    1.6559    2.2292 H   0  0  0  0  0  0  0  0  0  0  0  0
    3.8527    1.7296    1.2332 C   0  0  0  0  0  0  0  0  0  0  0  0
    3.1170    0.8410   -2.4437 C   0  0  0  0  0  0  0  0  0  0  0  0
    2.4363    1.6847   -2.6779 H   0  0  0  0  0  0  0  0  0  0  0  0
    2.4793   -0.0669   -2.3673 H   0  0  0  0  0  0  0  0  0  0  0  0
    3.8187    0.7043   -3.2880 H   0  0  0  0  0  0  0  0  0  0  0  0
    3.0785    2.1495    2.4557 C   0  0  0  0  0  0  0  0  0  0  0  0
    2.2741    1.4166    2.6777 H   0  0  0  0  0  0  0  0  0  0  0  0
    2.5807    3.1342    2.3249 H   0  0  0  0  0  0  0  0  0  0  0  0
    3.7371    2.2214    3.3418 H   0  0  0  0  0  0  0  0  0  0  0  0
   -3.4422    0.6792   -0.4771 C   0  0  0  0  0  0  0  0  0  0  0  0
   -4.2215    1.3754    0.4720 C   0  0  0  0  0  0  0  0  0  0  0  0
   -3.8375    1.5197    1.4902 H   0  0  0  0  0  0  0  0  0  0  0  0
   -5.4665    1.9003    0.1001 C   0  0  0  0  0  0  0  0  0  0  0  0
   -6.0684    2.4442    0.8435 H   0  0  0  0  0  0  0  0  0  0  0  0
   -5.9421    1.7388   -1.2113 C   0  0  0  0  0  0  0  0  0  0  0  0
   -6.9212    2.1523   -1.4974 H   0  0  0  0  0  0  0  0  0  0  0  0
   -5.1704    1.0437   -2.1549 C   0  0  0  0  0  0  0  0  0  0  0  0
   -5.5416    0.9053   -3.1815 H   0  0  0  0  0  0  0  0  0  0  0  0
   -3.9249    0.5102   -1.7907 C   0  0  0  0  0  0  0  0  0  0  0  0
   -3.3351   -0.0519   -2.5290 H   0  0  0  0  0  0  0  0  0  0  0  0
   -2.0549   -0.7252    1.6612 C   0  0  0  0  0  0  0  0  0  0  0  0
   -3.2224   -1.4605    1.9539 C   0  0  0  0  0  0  0  0  0  0  0  0
   -4.0078   -1.5808    1.1920 H   0  0  0  0  0  0  0  0  0  0  0  0
   -3.3843   -2.0292    3.2253 C   0  0  0  0  0  0  0  0  0  0  0  0
   -4.2935   -2.6052    3.4546 H   0  0  0  0  0  0  0  0  0  0  0  0
   -2.3899   -1.8598    4.2028 C   0  0  0  0  0  0  0  0  0  0  0  0
   -2.5188   -2.3083    5.1995 H   0  0  0  0  0  0  0  0  0  0  0  0
   -1.2352   -1.1161    3.9129 C   0  0  0  0  0  0  0  0  0  0  0  0
   -0.4573   -0.9806    4.6788 H   0  0  0  0  0  0  0  0  0  0  0  0
   -1.0644   -0.5452    2.6440 C   0  0  0  0  0  0  0  0  0  0  0  0
   -0.1625    0.0364    2.4044 H   0  0  0  0  0  0  0  0  0  0  0  0
   -1.4475   -1.3417   -1.1788 C   0  0  0  0  0  0  0  0  0  0  0  0
   -1.6648   -2.6915   -0.8469 C   0  0  0  0  0  0  0  0  0  0  0  0
   -2.0071   -2.9667    0.1602 H   0  0  0  0  0  0  0  0  0  0  0  0
   -1.3665   -3.6926   -1.7812 C   0  0  0  0  0  0  0  0  0  0  0  0
   -1.4953   -4.7483   -1.5022 H   0  0  0  0  0  0  0  0  0  0  0  0
   -0.8751   -3.3527   -3.0496 C   0  0  0  0  0  0  0  0  0  0  0  0
   -0.6277   -4.1435   -3.7734 H   0  0  0  0  0  0  0  0  0  0  0  0
   -0.6782   -2.0039   -3.3898 C   0  0  0  0  0  0  0  0  0  0  0  0
   -0.2801   -1.7352   -4.3797 H   0  0  0  0  0  0  0  0  0  0  0  0
   -0.9575   -0.9971   -2.4584 C   0  0  0  0  0  0  0  0  0  0  0  0
   -0.7581    0.0573   -2.7000 H   0  0  0  0  0  0  0  0  0  0  0  0
    1.7742    1.7753   -0.0465 N   0  0  0  0  0  0  0  0  0  0  0  0
    1.4777    2.7518    0.1008 H   0  0  0  0  0  0  0  0  0  0  0  0
   -0.4295    3.6876   -0.3897 N   0  0  0  0  0  0  0  0  0  0  0  0
   -1.8064    2.7931    1.2166 O   0  0  0  0  0  0  0  0  0  0  0  0
   -1.8079   -0.0008    0.0051 P   0  0  0  0  0  4  0  0  0  0  0  0
  1 62  1  0  0  0  0
  2  1  1  1  0  0  0
  2 66  1  0  0  0  0
  2  3  1  0  0  0  0
  3 65  2  0  0  0  0
  4 64  1  0  0  0  0
  5  4  1  0  0  0  0
  6  4  1  0  0  0  0
  7  4  1  0  0  0  0
  8  9  1  0  0  0  0
 10  8  1  0  0  0  0
 11  8  1  0  0  0  0
 12 20  1  0  0  0  0
 13 14  1  0  0  0  0
 13 12  2  0  0  0  0
 14 16  2  0  0  0  0
 15 14  1  0  0  0  0
 16 17  1  0  0  0  0
 16 18  1  0  0  0  0
 18 19  1  0  0  0  0
 20 18  2  0  0  0  0
 20 25  1  0  0  0  0
 21 23  1  0  0  0  0
 21 13  1  0  0  0  0
 22 21  1  0  0  0  0
 24 21  1  0  0  0  0
 25 26  1  0  0  0  0
 25 28  1  0  0  0  0
 27 25  1  0  0  0  0
 29 66  1  0  0  0  0
 29 30  1  0  0  0  0
 30 31  1  0  0  0  0
 32 30  2  0  0  0  0
 32 33  1  0  0  0  0
 34 32  1  0  0  0  0
 35 34  1  0  0  0  0
 36 38  1  0  0  0  0
 36 34  2  0  0  0  0
 37 36  1  0  0  0  0
 38 29  2  0  0  0  0
 39 38  1  0  0  0  0
 40 41  2  0  0  0  0
 40 49  1  0  0  0  0
 41 43  1  0  0  0  0
 42 41  1  0  0  0  0
 43 44  1  0  0  0  0
 43 45  2  0  0  0  0
 45 46  1  0  0  0  0
 47 45  1  0  0  0  0
 47 48  1  0  0  0  0
 49 47  2  0  0  0  0
 50 49  1  0  0  0  0
 51 52  1  0  0  0  0
 51 66  1  0  0  0  0
 52 53  1  0  0  0  0
 54 55  1  0  0  0  0
 54 52  2  0  0  0  0
 56 54  1  0  0  0  0
 57 56  1  0  0  0  0
 58 56  2  0  0  0  0
 58 60  1  0  0  0  0
 59 58  1  0  0  0  0
 60 51  2  0  0  0  0
 61 60  1  0  0  0  0
 62 12  1  0  0  0  0
 62 63  1  0  0  0  0
 64  8  1  0  0  0  0
 64  3  1  0  0  0  0
 66 40  1  0  0  0  0
M  END
