6
 OpenBabel05122313113D

 56 57  0  0  1  0  0  0  0  0999 V2000
   -1.2651    1.6937   -1.4124 O   0  0  0  0  0  0  0  0  0  0  0  0
   -0.0849    1.2153    0.4497 N   0  0  0  0  0  0  0  0  0  0  0  0
    0.6894    0.3340   -0.3886 C   0  0  1  0  0  3  0  0  0  0  0  0
    0.3457   -1.0549   -0.4928 C   0  0  0  0  0  0  0  0  0  0  0  0
    1.1515   -1.9018   -1.3063 C   0  0  0  0  0  0  0  0  0  0  0  0
    2.2641   -1.3738   -2.0102 C   0  0  0  0  0  3  0  0  0  0  0  0
    2.5658    0.0120   -1.9520 C   0  0  0  0  0  0  0  0  0  0  0  0
    1.7973    0.8797   -1.1239 C   0  0  0  0  0  0  0  0  0  0  0  0
   -0.9609   -1.5693    0.0847 C   0  0  2  0  0  0  0  0  0  0  0  0
   -0.8715   -2.9076    0.8210 C   0  0  0  0  0  0  0  0  0  0  0  0
   -1.9674   -1.6146   -1.1136 C   0  0  0  0  0  0  0  0  0  0  0  0
   -3.4163   -1.5902   -0.6915 C   0  0  0  0  0  0  0  0  0  0  0  0
   -4.1043   -0.3590   -0.6421 C   0  0  0  0  0  0  0  0  0  0  0  0
   -5.4373   -0.2936   -0.2105 C   0  0  0  0  0  0  0  0  0  0  0  0
   -6.1112   -1.4636    0.1754 C   0  0  0  0  0  0  0  0  0  0  0  0
   -5.4458   -2.6979    0.1117 C   0  0  0  0  0  0  0  0  0  0  0  0
   -4.1115   -2.7597   -0.3204 C   0  0  0  0  0  0  0  0  0  0  0  0
    2.0730    2.3660   -1.0573 C   0  0  0  0  0  0  0  0  0  0  0  0
    3.4220    2.8322   -1.5991 C   0  0  0  0  0  0  0  0  0  0  0  0
    0.2811    1.2645    1.8621 C   0  0  0  0  0  0  0  0  0  0  0  0
   -1.0694    1.9340   -0.2154 C   0  0  0  0  0  0  0  0  0  0  0  0
   -1.8889    3.0442    0.5055 C   0  0  0  0  0  0  0  0  0  0  0  0
   -0.9518    4.1507    1.0405 C   0  0  0  0  0  0  0  0  0  0  0  0
   -2.8079    3.6790   -0.5575 C   0  0  0  0  0  0  0  0  0  0  0  0
   -2.7941    2.4683    1.6197 C   0  0  0  0  0  0  0  0  0  0  0  0
    0.9298   -2.9756   -1.3592 H   0  0  0  0  0  0  0  0  0  0  0  0
    2.9033   -2.0445   -2.6014 H   0  0  0  0  0  0  0  0  0  0  0  0
    3.4383    0.4009   -2.4903 H   0  0  0  0  0  0  0  0  0  0  0  0
   -1.3373   -0.8043    0.7926 H   0  0  0  0  0  0  0  0  0  0  0  0
   -1.8710   -3.1931    1.2027 H   0  0  0  0  0  0  0  0  0  0  0  0
   -0.5288   -3.7247    0.1530 H   0  0  0  0  0  0  0  0  0  0  0  0
   -0.1821   -2.8582    1.6834 H   0  0  0  0  0  0  0  0  0  0  0  0
   -1.7692   -0.7362   -1.7590 H   0  0  0  0  0  0  0  0  0  0  0  0
   -1.7502   -2.5246   -1.7133 H   0  0  0  0  0  0  0  0  0  0  0  0
   -3.5772    0.5511   -0.9690 H   0  0  0  0  0  0  0  0  0  0  0  0
   -5.9564    0.6773   -0.1842 H   0  0  0  0  0  0  0  0  0  0  0  0
   -7.1578   -1.4157    0.5125 H   0  0  0  0  0  0  0  0  0  0  0  0
   -5.9716   -3.6226    0.3950 H   0  0  0  0  0  0  0  0  0  0  0  0
   -3.6046   -3.7354   -0.3845 H   0  0  0  0  0  0  0  0  0  0  0  0
    1.2450    2.8527   -1.6199 H   0  0  0  0  0  0  0  0  0  0  0  0
    1.9523    2.7037   -0.0088 H   0  0  0  0  0  0  0  0  0  0  0  0
    3.5366    2.6171   -2.6805 H   0  0  0  0  0  0  0  0  0  0  0  0
    4.2638    2.3560   -1.0584 H   0  0  0  0  0  0  0  0  0  0  0  0
    3.5234    3.9278   -1.4741 H   0  0  0  0  0  0  0  0  0  0  0  0
    0.2484    0.2485    2.3026 H   0  0  0  0  0  0  0  0  0  0  0  0
   -0.4156    1.9033    2.4224 H   0  0  0  0  0  0  0  0  0  0  0  0
    1.3113    1.6541    1.9959 H   0  0  0  0  0  0  0  0  0  0  0  0
   -0.2728    3.8117    1.8446 H   0  0  0  0  0  0  0  0  0  0  0  0
   -0.3268    4.5630    0.2225 H   0  0  0  0  0  0  0  0  0  0  0  0
   -1.5584    4.9839    1.4501 H   0  0  0  0  0  0  0  0  0  0  0  0
   -2.2253    4.0768   -1.4092 H   0  0  0  0  0  0  0  0  0  0  0  0
   -3.3831    4.5079   -0.0983 H   0  0  0  0  0  0  0  0  0  0  0  0
   -3.5240    2.9411   -0.9667 H   0  0  0  0  0  0  0  0  0  0  0  0
   -3.4744    3.2649    1.9846 H   0  0  0  0  0  0  0  0  0  0  0  0
   -2.2433    2.0860    2.4993 H   0  0  0  0  0  0  0  0  0  0  0  0
   -3.4219    1.6408    1.2336 H   0  0  0  0  0  0  0  0  0  0  0  0
  1 21  2  0  0  0  0
  2 20  1  0  0  0  0
  3  2  1  6  0  0  0
  4  3  1  0  0  0  0
  4  9  1  0  0  0  0
  5  4  2  0  0  0  0
  6  7  1  0  0  0  0
  6  5  1  0  0  0  0
  7  8  2  0  0  0  0
  8 18  1  0  0  0  0
  8  3  1  0  0  0  0
  9 29  1  1  0  0  0
  9 10  1  0  0  0  0
 10 30  1  0  0  0  0
 10 32  1  0  0  0  0
 11 12  1  0  0  0  0
 11  9  1  0  0  0  0
 12 13  2  0  0  0  0
 12 17  1  0  0  0  0
 13 14  1  0  0  0  0
 14 36  1  0  0  0  0
 14 15  2  0  0  0  0
 15 37  1  0  0  0  0
 16 15  1  0  0  0  0
 16 38  1  0  0  0  0
 17 16  2  0  0  0  0
 18 41  1  0  0  0  0
 19 44  1  0  0  0  0
 19 43  1  0  0  0  0
 19 18  1  0  0  0  0
 20 47  1  0  0  0  0
 20 45  1  0  0  0  0
 20 46  1  0  0  0  0
 21  2  1  0  0  0  0
 21 22  1  0  0  0  0
 22 23  1  0  0  0  0
 22 25  1  0  0  0  0
 23 50  1  0  0  0  0
 23 48  1  0  0  0  0
 24 52  1  0  0  0  0
 24 22  1  0  0  0  0
 25 54  1  0  0  0  0
 25 55  1  0  0  0  0
 26  5  1  0  0  0  0
 27  6  1  0  0  0  0
 28  7  1  0  0  0  0
 31 10  1  0  0  0  0
 33 11  1  0  0  0  0
 34 11  1  0  0  0  0
 35 13  1  0  0  0  0
 39 17  1  0  0  0  0
 40 18  1  0  0  0  0
 42 19  1  0  0  0  0
 49 23  1  0  0  0  0
 51 24  1  0  0  0  0
 53 24  1  0  0  0  0
 56 25  1  0  0  0  0
M  END
