1
 OpenBabel05122313113D

 24 25  0  0  0  0  0  0  0  0999 V2000
   -0.1370    1.0693   -0.1765 C   0  0  0  0  0  2  0  0  0  0  0  0
   -0.0294    2.3918   -0.3529 O   0  0  0  0  0  0  0  0  0  0  0  0
   -2.7326    2.0937   -0.2835 S   0  0  0  0  0  0  0  0  0  0  0  0
   -4.6728   -1.1873    0.1489 N   0  0  0  0  0  0  0  0  0  0  0  0
   -1.5432    0.7553   -0.1294 C   0  0  0  0  0  0  0  0  0  0  0  0
   -2.1796   -0.4891    0.0347 C   0  0  0  0  0  0  0  0  0  0  0  0
   -1.6340   -1.4307    0.1499 H   0  0  0  0  0  0  0  0  0  0  0  0
   -3.5762   -0.3525    0.0324 C   0  0  0  0  0  0  0  0  0  0  0  0
   -4.0501    0.9796   -0.1298 C   0  0  0  0  0  0  0  0  0  0  0  0
   -5.4685    0.9424   -0.1101 C   0  0  0  0  0  0  0  0  0  0  0  0
   -6.1756    1.7721   -0.2070 H   0  0  0  0  0  0  0  0  0  0  0  0
   -5.8063   -0.4050    0.0626 C   0  0  0  0  0  0  0  0  0  0  0  0
   -6.7987   -0.8668    0.1310 H   0  0  0  0  0  0  0  0  0  0  0  0
   -4.6144   -2.6237    0.3287 C   0  0  0  0  0  0  0  0  0  0  0  0
   -4.0831   -2.8834    1.2677 H   0  0  0  0  0  0  0  0  0  0  0  0
   -4.0866   -3.1062   -0.5197 H   0  0  0  0  0  0  0  0  0  0  0  0
   -5.6415   -3.0283    0.3810 H   0  0  0  0  0  0  0  0  0  0  0  0
    1.2106    3.1187   -0.3590 C   0  0  0  0  0  0  0  0  0  0  0  0
    1.1705    3.7571   -1.2652 H   0  0  0  0  0  0  0  0  0  0  0  0
    2.0512    2.4074   -0.4656 H   0  0  0  0  0  0  0  0  0  0  0  0
    1.3225    3.9523    0.9044 C   0  0  0  0  0  0  0  0  0  0  0  0
    2.2357    4.5786    0.8584 H   0  0  0  0  0  0  0  0  0  0  0  0
    1.3952    3.3066    1.8008 H   0  0  0  0  0  0  0  0  0  0  0  0
    0.4457    4.6198    1.0178 H   0  0  0  0  0  0  0  0  0  0  0  0
  1  5  1  0  0  0  0
  2  1  1  0  0  0  0
  3  9  1  0  0  0  0
  3  5  1  0  0  0  0
  4 14  1  0  0  0  0
  5  6  2  0  0  0  0
  6  7  1  0  0  0  0
  8  6  1  0  0  0  0
  8  4  1  0  0  0  0
  9 10  1  0  0  0  0
  9  8  2  0  0  0  0
 10 12  2  0  0  0  0
 11 10  1  0  0  0  0
 12 13  1  0  0  0  0
 12  4  1  0  0  0  0
 14 17  1  0  0  0  0
 14 15  1  0  0  0  0
 16 14  1  0  0  0  0
 18  2  1  0  0  0  0
 18 21  1  0  0  0  0
 19 18  1  0  0  0  0
 20 18  1  0  0  0  0
 21 24  1  0  0  0  0
 21 23  1  0  0  0  0
 22 21  1  0  0  0  0
M  END
