4
 OpenBabel05122313113D

 34 35  0  0  1  0  0  0  0  0999 V2000
    6.2263    1.2048    0.4366 Br  0  0  0  0  0  0  0  0  0  0  0  0
   -0.5275   -2.1330   -2.7175 O   0  0  0  0  0  0  0  0  0  0  0  0
    1.3710   -2.7350   -1.6492 O   0  0  0  0  0  0  0  0  0  0  0  0
   -0.5503    0.3754   -1.4710 C   0  0  0  0  0  3  0  0  0  0  0  0
   -1.2532    0.1224   -2.2799 H   0  0  0  0  0  0  0  0  0  0  0  0
   -0.7419    1.5132   -0.6391 C   0  0  0  0  0  3  0  0  0  0  0  0
    0.1002    1.8510   -0.0158 H   0  0  0  0  0  0  0  0  0  0  0  0
   -1.8313    2.4881   -0.8045 C   0  0  0  0  0  0  0  0  0  0  0  0
   -2.0333    3.4561    0.2091 C   0  0  0  0  0  0  0  0  0  0  0  0
   -1.3672    3.4460    1.0862 H   0  0  0  0  0  0  0  0  0  0  0  0
   -3.0674    4.3949    0.1137 C   0  0  0  0  0  0  0  0  0  0  0  0
   -3.2076    5.1362    0.9154 H   0  0  0  0  0  0  0  0  0  0  0  0
   -3.9216    4.3967   -1.0029 C   0  0  0  0  0  0  0  0  0  0  0  0
   -4.7309    5.1381   -1.0820 H   0  0  0  0  0  0  0  0  0  0  0  0
   -3.7267    3.4505   -2.0223 C   0  0  0  0  0  0  0  0  0  0  0  0
   -4.3812    3.4525   -2.9076 H   0  0  0  0  0  0  0  0  0  0  0  0
   -2.6957    2.5051   -1.9247 C   0  0  0  0  0  0  0  0  0  0  0  0
   -2.5473    1.7815   -2.7403 H   0  0  0  0  0  0  0  0  0  0  0  0
    0.4894   -0.5809   -1.1605 C   0  0  1  0  0  3  0  0  0  0  0  0
    0.3661   -1.8658   -1.9186 C   0  0  0  0  0  0  0  0  0  0  0  0
    1.3737   -3.9460   -2.4095 C   0  0  0  0  0  0  0  0  0  0  0  0
    2.3321   -4.4455   -2.1808 H   0  0  0  0  0  0  0  0  0  0  0  0
    1.2941   -3.7323   -3.4939 H   0  0  0  0  0  0  0  0  0  0  0  0
    0.5270   -4.6018   -2.1213 H   0  0  0  0  0  0  0  0  0  0  0  0
    1.8556   -0.1558   -0.7335 C   0  0  0  0  0  0  0  0  0  0  0  0
    2.6352   -0.9137    0.1676 C   0  0  0  0  0  0  0  0  0  0  0  0
    2.2068   -1.8191    0.6155 H   0  0  0  0  0  0  0  0  0  0  0  0
    3.9309   -0.5198    0.5132 C   0  0  0  0  0  0  0  0  0  0  0  0
    4.5242   -1.1133    1.2227 H   0  0  0  0  0  0  0  0  0  0  0  0
    4.4629    0.6579   -0.0373 C   0  0  0  0  0  0  0  0  0  0  0  0
    3.7131    1.4355   -0.9303 C   0  0  0  0  0  0  0  0  0  0  0  0
    4.1397    2.3517   -1.3620 H   0  0  0  0  0  0  0  0  0  0  0  0
    2.4183    1.0198   -1.2728 C   0  0  0  0  0  0  0  0  0  0  0  0
    1.8352    1.6196   -1.9877 H   0  0  0  0  0  0  0  0  0  0  0  0
  2 20  2  0  0  0  0
  4 19  1  0  0  0  0
  4  6  1  0  0  0  0
  5  4  1  0  0  0  0
  6  7  1  0  0  0  0
  8  6  1  0  0  0  0
  8  9  1  0  0  0  0
  9 10  1  0  0  0  0
 11  9  2  0  0  0  0
 11 12  1  0  0  0  0
 13 11  1  0  0  0  0
 14 13  1  0  0  0  0
 15 17  1  0  0  0  0
 15 13  2  0  0  0  0
 16 15  1  0  0  0  0
 17  8  2  0  0  0  0
 18 17  1  0  0  0  0
 19 20  1  6  0  0  0
 19 25  1  0  0  0  0
 20  3  1  0  0  0  0
 21 22  1  0  0  0  0
 21 24  1  0  0  0  0
 21  3  1  0  0  0  0
 23 21  1  0  0  0  0
 25 26  1  0  0  0  0
 26 28  2  0  0  0  0
 26 27  1  0  0  0  0
 28 29  1  0  0  0  0
 30  1  1  0  0  0  0
 30 28  1  0  0  0  0
 31 30  2  0  0  0  0
 32 31  1  0  0  0  0
 33 31  1  0  0  0  0
 33 25  2  0  0  0  0
 34 33  1  0  0  0  0
M  END
