7
 OpenBabel05122313113D

 79 84  0  0  1  0  0  0  0  0999 V2000
   -1.5729    0.2625    2.6242 Si  0  0  0  0  0  0  0  0  0  0  0  0
    0.0989    0.0619    1.7039 C   0  0  0  0  0  0  0  0  0  0  0  0
    0.8028    1.1257    1.0062 C   0  0  0  0  0  0  0  0  0  0  0  0
    1.6612    0.5360    0.0053 C   0  0  0  0  0  0  0  0  0  0  0  0
    1.4505   -0.8825    0.0295 C   0  0  0  0  0  0  0  0  0  0  0  0
    0.5379   -1.1758    1.1066 C   0  0  1  0  0  3  0  0  0  0  0  0
   -2.5430    0.7932    1.0981 C   0  0  2  0  0  3  0  0  0  0  0  0
   -3.2473   -0.0863    0.2103 C   0  0  0  0  0  0  0  0  0  0  0  0
   -3.5585   -1.1097    0.4516 H   0  0  0  0  0  0  0  0  0  0  0  0
   -3.4651    0.5638   -1.0479 C   0  0  0  0  0  0  0  0  0  0  0  0
   -2.8533    1.8485   -0.9496 C   0  0  0  0  0  0  0  0  0  0  0  0
   -2.8191    2.6028   -1.7443 H   0  0  0  0  0  0  0  0  0  0  0  0
   -2.2891    1.9942    0.3477 C   0  0  0  0  0  0  0  0  0  0  0  0
   -1.7515    2.8788    0.7108 H   0  0  0  0  0  0  0  0  0  0  0  0
   -1.6464    1.5559    3.9907 C   0  0  0  0  0  0  0  0  0  0  0  0
   -1.4397    2.5766    3.6187 H   0  0  0  0  0  0  0  0  0  0  0  0
   -0.9276    1.3305    4.8046 H   0  0  0  0  0  0  0  0  0  0  0  0
   -2.6682    1.5408    4.4235 H   0  0  0  0  0  0  0  0  0  0  0  0
   -2.3362   -1.3456    3.2401 C   0  0  0  0  0  0  0  0  0  0  0  0
   -3.4010   -1.1339    3.4734 H   0  0  0  0  0  0  0  0  0  0  0  0
   -1.8497   -1.7221    4.1599 H   0  0  0  0  0  0  0  0  0  0  0  0
   -2.2955   -2.1543    2.4858 H   0  0  0  0  0  0  0  0  0  0  0  0
   -4.3319    0.0866   -2.2095 C   0  0  0  0  0  0  0  0  0  0  0  0
   -5.5716    1.0135   -2.2524 C   0  0  0  0  0  0  0  0  0  0  0  0
   -6.1244    0.9867   -1.2914 H   0  0  0  0  0  0  0  0  0  0  0  0
   -6.2628    0.6891   -3.0577 H   0  0  0  0  0  0  0  0  0  0  0  0
   -5.2847    2.0655   -2.4520 H   0  0  0  0  0  0  0  0  0  0  0  0
   -4.8033   -1.3612   -1.9892 C   0  0  0  0  0  0  0  0  0  0  0  0
   -3.9442   -2.0551   -1.9135 H   0  0  0  0  0  0  0  0  0  0  0  0
   -5.4353   -1.6854   -2.8404 H   0  0  0  0  0  0  0  0  0  0  0  0
   -5.4134   -1.4526   -1.0673 H   0  0  0  0  0  0  0  0  0  0  0  0
   -3.5769    0.1907   -3.5507 C   0  0  0  0  0  0  0  0  0  0  0  0
   -3.2005    1.2170   -3.7312 H   0  0  0  0  0  0  0  0  0  0  0  0
   -4.2549   -0.0752   -4.3874 H   0  0  0  0  0  0  0  0  0  0  0  0
   -2.7091   -0.4956   -3.5713 H   0  0  0  0  0  0  0  0  0  0  0  0
    0.8323    2.5638    1.3662 C   0  0  0  0  0  0  0  0  0  0  0  0
    1.0146    2.9420    2.7141 C   0  0  0  0  0  0  0  0  0  0  0  0
    1.1100    2.1569    3.4779 H   0  0  0  0  0  0  0  0  0  0  0  0
    1.1058    4.2944    3.0760 C   0  0  0  0  0  0  0  0  0  0  0  0
    1.2491    4.5680    4.1326 H   0  0  0  0  0  0  0  0  0  0  0  0
    1.0276    5.2932    2.0933 C   0  0  0  0  0  0  0  0  0  0  0  0
    1.1005    6.3545    2.3753 H   0  0  0  0  0  0  0  0  0  0  0  0
    0.8672    4.9285    0.7455 C   0  0  0  0  0  0  0  0  0  0  0  0
    0.8152    5.7039   -0.0337 H   0  0  0  0  0  0  0  0  0  0  0  0
    0.7740    3.5791    0.3829 C   0  0  0  0  0  0  0  0  0  0  0  0
    0.6493    3.2968   -0.6736 H   0  0  0  0  0  0  0  0  0  0  0  0
    2.7792    1.2240   -0.6825 C   0  0  0  0  0  0  0  0  0  0  0  0
    3.6468    2.0298    0.0926 C   0  0  0  0  0  0  0  0  0  0  0  0
    3.4492    2.1581    1.1662 H   0  0  0  0  0  0  0  0  0  0  0  0
    4.7608    2.6501   -0.4859 C   0  0  0  0  0  0  0  0  0  0  0  0
    5.4238    3.2683    0.1384 H   0  0  0  0  0  0  0  0  0  0  0  0
    5.0329    2.4795   -1.8528 C   0  0  0  0  0  0  0  0  0  0  0  0
    5.9071    2.9683   -2.3095 H   0  0  0  0  0  0  0  0  0  0  0  0
    4.1836    1.6788   -2.6305 C   0  0  0  0  0  0  0  0  0  0  0  0
    4.3861    1.5375   -3.7030 H   0  0  0  0  0  0  0  0  0  0  0  0
    3.0681    1.0558   -2.0534 C   0  0  0  0  0  0  0  0  0  0  0  0
    2.3989    0.4545   -2.6778 H   0  0  0  0  0  0  0  0  0  0  0  0
    2.2529   -1.8983   -0.6970 C   0  0  0  0  0  0  0  0  0  0  0  0
    2.1276   -2.1234   -2.0832 C   0  0  0  0  0  0  0  0  0  0  0  0
    1.3812   -1.5570   -2.6576 H   0  0  0  0  0  0  0  0  0  0  0  0
    2.9199   -3.0885   -2.7220 C   0  0  0  0  0  0  0  0  0  0  0  0
    2.8066   -3.2535   -3.8043 H   0  0  0  0  0  0  0  0  0  0  0  0
    3.8452   -3.8446   -1.9867 C   0  0  0  0  0  0  0  0  0  0  0  0
    4.4650   -4.6023   -2.4900 H   0  0  0  0  0  0  0  0  0  0  0  0
    3.9738   -3.6324   -0.6048 C   0  0  0  0  0  0  0  0  0  0  0  0
    4.6962   -4.2212   -0.0193 H   0  0  0  0  0  0  0  0  0  0  0  0
    3.1824   -2.6693    0.0350 C   0  0  0  0  0  0  0  0  0  0  0  0
    3.2801   -2.5049    1.1184 H   0  0  0  0  0  0  0  0  0  0  0  0
    0.3352   -2.5270    1.6781 C   0  0  0  0  0  0  0  0  0  0  0  0
    0.0804   -3.6766    0.8991 C   0  0  0  0  0  0  0  0  0  0  0  0
   -0.0552   -3.5711   -0.1848 H   0  0  0  0  0  0  0  0  0  0  0  0
   -0.0185   -4.9368    1.5042 C   0  0  0  0  0  0  0  0  0  0  0  0
   -0.2286   -5.8196    0.8815 H   0  0  0  0  0  0  0  0  0  0  0  0
    0.1528   -5.0790    2.8906 C   0  0  0  0  0  0  0  0  0  0  0  0
    0.0784   -6.0718    3.3598 H   0  0  0  0  0  0  0  0  0  0  0  0
    0.4342   -3.9475    3.6725 C   0  0  0  0  0  0  0  0  0  0  0  0
    0.5905   -4.0488    4.7574 H   0  0  0  0  0  0  0  0  0  0  0  0
    0.5281   -2.6858    3.0707 C   0  0  0  0  0  0  0  0  0  0  0  0
    0.7742   -1.8007    3.6771 H   0  0  0  0  0  0  0  0  0  0  0  0
  1 19  1  0  0  0  0
  1 15  1  0  0  0  0
  2  1  1  0  0  0  0
  3 36  1  0  0  0  0
  3  2  2  0  0  0  0
  4  5  2  0  0  0  0
  4  3  1  0  0  0  0
  5  6  1  0  0  0  0
  6 69  1  1  0  0  0
  6  2  1  0  0  0  0
  7  1  1  6  0  0  0
  8  9  1  0  0  0  0
  8  7  1  0  0  0  0
 10 11  1  0  0  0  0
 10  8  2  0  0  0  0
 11 13  2  0  0  0  0
 12 11  1  0  0  0  0
 13 14  1  0  0  0  0
 13  7  1  0  0  0  0
 15 18  1  0  0  0  0
 15 17  1  0  0  0  0
 16 15  1  0  0  0  0
 19 20  1  0  0  0  0
 19 21  1  0  0  0  0
 22 19  1  0  0  0  0
 23 28  1  0  0  0  0
 23 10  1  0  0  0  0
 24 23  1  0  0  0  0
 24 25  1  0  0  0  0
 26 24  1  0  0  0  0
 27 24  1  0  0  0  0
 28 29  1  0  0  0  0
 28 31  1  0  0  0  0
 30 28  1  0  0  0  0
 32 23  1  0  0  0  0
 33 32  1  0  0  0  0
 34 32  1  0  0  0  0
 35 32  1  0  0  0  0
 36 37  1  0  0  0  0
 37 39  2  0  0  0  0
 37 38  1  0  0  0  0
 39 40  1  0  0  0  0
 41 42  1  0  0  0  0
 41 39  1  0  0  0  0
 43 41  2  0  0  0  0
 44 43  1  0  0  0  0
 45 43  1  0  0  0  0
 45 36  2  0  0  0  0
 46 45  1  0  0  0  0
 47  4  1  0  0  0  0
 47 48  1  0  0  0  0
 48 49  1  0  0  0  0
 50 48  2  0  0  0  0
 50 51  1  0  0  0  0
 52 50  1  0  0  0  0
 53 52  1  0  0  0  0
 54 56  1  0  0  0  0
 54 52  2  0  0  0  0
 55 54  1  0  0  0  0
 56 47  2  0  0  0  0
 57 56  1  0  0  0  0
 58  5  1  0  0  0  0
 58 67  1  0  0  0  0
 59 58  2  0  0  0  0
 60 59  1  0  0  0  0
 61 59  1  0  0  0  0
 61 63  2  0  0  0  0
 62 61  1  0  0  0  0
 63 65  1  0  0  0  0
 64 63  1  0  0  0  0
 65 66  1  0  0  0  0
 65 67  2  0  0  0  0
 67 68  1  0  0  0  0
 69 78  1  0  0  0  0
 70 72  1  0  0  0  0
 70 69  2  0  0  0  0
 71 70  1  0  0  0  0
 72 74  2  0  0  0  0
 73 72  1  0  0  0  0
 74 75  1  0  0  0  0
 74 76  1  0  0  0  0
 76 77  1  0  0  0  0
 78 76  2  0  0  0  0
 78 79  1  0  0  0  0
M  END
