14
 OpenBabel05122313113D

 67 72  0  0  1  0  0  0  0  0999 V2000
    0.1918   -2.9756   -0.9168 Si  0  0  0  0  0  0  0  0  0  0  0  0
    0.0865   -1.0708   -1.0128 C   0  0  0  0  0  0  0  0  0  0  0  0
    1.2011   -0.1926   -0.7439 C   0  0  2  0  0  3  0  0  0  0  0  0
    0.6938    1.1310   -0.4734 C   0  0  0  0  0  0  0  0  0  0  0  0
   -0.7421    1.0624   -0.4973 C   0  0  0  0  0  0  0  0  0  0  0  0
   -1.1154   -0.2930   -0.8306 C   0  0  0  0  0  0  0  0  0  0  0  0
    0.0754   -3.0179    0.9661 C   0  0  1  0  0  3  0  0  0  0  0  0
    1.1535   -2.7317    1.8673 C   0  0  0  0  0  3  0  0  0  0  0  0
    2.2215   -2.7602    1.6143 H   0  0  0  0  0  0  0  0  0  0  0  0
    0.6124   -2.3966    3.1472 C   0  0  0  0  0  0  0  0  0  0  0  0
    1.1881   -2.1181    4.0372 H   0  0  0  0  0  0  0  0  0  0  0  0
   -0.8000   -2.4380    3.0473 C   0  0  0  0  0  0  0  0  0  0  0  0
   -1.5103   -2.1970    3.8461 H   0  0  0  0  0  0  0  0  0  0  0  0
   -1.1355   -2.7946    1.7050 C   0  0  0  0  0  3  0  0  0  0  0  0
   -2.1550   -2.8736    1.3033 H   0  0  0  0  0  0  0  0  0  0  0  0
    1.8226   -3.6996   -1.5115 C   0  0  0  0  0  0  0  0  0  0  0  0
    2.6976   -3.2764   -0.9833 H   0  0  0  0  0  0  0  0  0  0  0  0
    1.9681   -3.5194   -2.5952 H   0  0  0  0  0  0  0  0  0  0  0  0
    1.8031   -4.7962   -1.3421 H   0  0  0  0  0  0  0  0  0  0  0  0
   -1.2430   -3.9289   -1.6733 C   0  0  0  0  0  0  0  0  0  0  0  0
   -1.0874   -5.0063   -1.4554 H   0  0  0  0  0  0  0  0  0  0  0  0
   -1.2846   -3.8035   -2.7733 H   0  0  0  0  0  0  0  0  0  0  0  0
   -2.2238   -3.6259   -1.2620 H   0  0  0  0  0  0  0  0  0  0  0  0
    2.6223   -0.5307   -1.0364 C   0  0  0  0  0  0  0  0  0  0  0  0
    2.9867   -0.6820   -2.3926 C   0  0  0  0  0  0  0  0  0  0  0  0
    2.2205   -0.5309   -3.1681 H   0  0  0  0  0  0  0  0  0  0  0  0
    4.2990   -1.0184   -2.7516 C   0  0  0  0  0  0  0  0  0  0  0  0
    4.5639   -1.1287   -3.8142 H   0  0  0  0  0  0  0  0  0  0  0  0
    5.2717   -1.2151   -1.7586 C   0  0  0  0  0  0  0  0  0  0  0  0
    6.3015   -1.4845   -2.0379 H   0  0  0  0  0  0  0  0  0  0  0  0
    4.9239   -1.0590   -0.4080 C   0  0  0  0  0  0  0  0  0  0  0  0
    5.6812   -1.2037    0.3776 H   0  0  0  0  0  0  0  0  0  0  0  0
    3.6119   -0.7141   -0.0486 C   0  0  0  0  0  0  0  0  0  0  0  0
    3.3467   -0.5845    1.0108 H   0  0  0  0  0  0  0  0  0  0  0  0
    1.4946    2.3790   -0.5096 C   0  0  0  0  0  0  0  0  0  0  0  0
    1.0640    3.4280   -1.3579 C   0  0  0  0  0  0  0  0  0  0  0  0
    0.1290    3.3151   -1.9244 H   0  0  0  0  0  0  0  0  0  0  0  0
    1.8190    4.5989   -1.4949 C   0  0  0  0  0  0  0  0  0  0  0  0
    1.4642    5.3983   -2.1631 H   0  0  0  0  0  0  0  0  0  0  0  0
    3.0230    4.7503   -0.7881 C   0  0  0  0  0  0  0  0  0  0  0  0
    3.6159    5.6717   -0.8929 H   0  0  0  0  0  0  0  0  0  0  0  0
    3.4648    3.7153    0.0485 C   0  0  0  0  0  0  0  0  0  0  0  0
    4.4071    3.8204    0.6075 H   0  0  0  0  0  0  0  0  0  0  0  0
    2.7127    2.5394    0.1847 C   0  0  0  0  0  0  0  0  0  0  0  0
    3.0590    1.7498    0.8599 H   0  0  0  0  0  0  0  0  0  0  0  0
   -1.6542    2.2142   -0.3285 C   0  0  0  0  0  0  0  0  0  0  0  0
   -2.7444    2.4072   -1.2051 C   0  0  0  0  0  0  0  0  0  0  0  0
   -2.9296    1.6835   -2.0110 H   0  0  0  0  0  0  0  0  0  0  0  0
   -3.5800    3.5255   -1.0690 C   0  0  0  0  0  0  0  0  0  0  0  0
   -4.4227    3.6616   -1.7638 H   0  0  0  0  0  0  0  0  0  0  0  0
   -3.3417    4.4670   -0.0563 C   0  0  0  0  0  0  0  0  0  0  0  0
   -3.9995    5.3429    0.0512 H   0  0  0  0  0  0  0  0  0  0  0  0
   -2.2586    4.2850    0.8197 C   0  0  0  0  0  0  0  0  0  0  0  0
   -2.0651    5.0159    1.6192 H   0  0  0  0  0  0  0  0  0  0  0  0
   -1.4237    3.1701    0.6871 C   0  0  0  0  0  0  0  0  0  0  0  0
   -0.5824    3.0271    1.3803 H   0  0  0  0  0  0  0  0  0  0  0  0
   -2.4855   -0.7568   -1.1786 C   0  0  0  0  0  0  0  0  0  0  0  0
   -3.5793   -0.7231   -0.2875 C   0  0  0  0  0  0  0  0  0  0  0  0
   -3.4255   -0.3612    0.7390 H   0  0  0  0  0  0  0  0  0  0  0  0
   -4.8513   -1.1389   -0.7075 C   0  0  0  0  0  0  0  0  0  0  0  0
   -5.6910   -1.1100    0.0034 H   0  0  0  0  0  0  0  0  0  0  0  0
   -5.0584   -1.5830   -2.0232 C   0  0  0  0  0  0  0  0  0  0  0  0
   -6.0589   -1.9056   -2.3489 H   0  0  0  0  0  0  0  0  0  0  0  0
   -3.9813   -1.6045   -2.9237 C   0  0  0  0  0  0  0  0  0  0  0  0
   -4.1335   -1.9405   -3.9608 H   0  0  0  0  0  0  0  0  0  0  0  0
   -2.7083   -1.1948   -2.5044 C   0  0  0  0  0  0  0  0  0  0  0  0
   -1.8638   -1.2000   -3.2101 H   0  0  0  0  0  0  0  0  0  0  0  0
  2  1  1  0  0  0  0
  2  6  2  0  0  0  0
  2  3  1  0  0  0  0
  3 24  1  6  0  0  0
  3  4  1  0  0  0  0
  5  4  2  0  0  0  0
  5 46  1  0  0  0  0
  6  5  1  0  0  0  0
  7  1  1  6  0  0  0
  7 14  1  0  0  0  0
  7  8  1  0  0  0  0
  8 10  1  0  0  0  0
  9  8  1  0  0  0  0
 10 11  1  0  0  0  0
 12 10  2  0  0  0  0
 12 13  1  0  0  0  0
 14 12  1  0  0  0  0
 15 14  1  0  0  0  0
 16 19  1  0  0  0  0
 16 17  1  0  0  0  0
 16  1  1  0  0  0  0
 18 16  1  0  0  0  0
 20 21  1  0  0  0  0
 20 23  1  0  0  0  0
 20  1  1  0  0  0  0
 22 20  1  0  0  0  0
 24 33  1  0  0  0  0
 25 24  2  0  0  0  0
 26 25  1  0  0  0  0
 27 25  1  0  0  0  0
 27 29  2  0  0  0  0
 28 27  1  0  0  0  0
 29 31  1  0  0  0  0
 30 29  1  0  0  0  0
 31 33  2  0  0  0  0
 31 32  1  0  0  0  0
 33 34  1  0  0  0  0
 35  4  1  0  0  0  0
 35 44  1  0  0  0  0
 36 35  2  0  0  0  0
 37 36  1  0  0  0  0
 38 36  1  0  0  0  0
 38 40  2  0  0  0  0
 39 38  1  0  0  0  0
 40 42  1  0  0  0  0
 41 40  1  0  0  0  0
 42 44  2  0  0  0  0
 42 43  1  0  0  0  0
 44 45  1  0  0  0  0
 46 55  1  0  0  0  0
 47 49  1  0  0  0  0
 47 46  2  0  0  0  0
 48 47  1  0  0  0  0
 49 51  2  0  0  0  0
 50 49  1  0  0  0  0
 51 52  1  0  0  0  0
 51 53  1  0  0  0  0
 53 54  1  0  0  0  0
 55 53  2  0  0  0  0
 55 56  1  0  0  0  0
 57  6  1  0  0  0  0
 57 58  1  0  0  0  0
 58 59  1  0  0  0  0
 60 58  2  0  0  0  0
 60 61  1  0  0  0  0
 62 60  1  0  0  0  0
 63 62  1  0  0  0  0
 64 66  1  0  0  0  0
 64 62  2  0  0  0  0
 65 64  1  0  0  0  0
 66 57  2  0  0  0  0
 67 66  1  0  0  0  0
M  END
