15
 OpenBabel05122313113D

 39 40  0  0  1  0  0  0  0  0999 V2000
   -3.4121   -0.9624   -0.0177 Si  0  0  0  0  0  0  0  0  0  0  0  0
   -1.9331   -0.1563   -0.2609 O   0  0  0  0  0  0  0  0  0  0  0  0
    1.3629    3.2282   -0.2336 O   0  0  0  0  0  0  0  0  0  0  0  0
    1.0140    4.1251   -0.3837 H   0  0  0  0  0  0  0  0  0  0  0  0
   -1.2792    0.7454    0.5892 C   0  0  2  0  0  0  0  0  0  0  0  0
   -1.9093    0.9749    1.4871 H   0  0  0  0  0  0  0  0  0  0  0  0
   -0.9217    2.1116   -0.1123 C   0  0  0  0  0  0  0  0  0  0  0  0
    0.4370    2.5279    0.5680 C   0  0  1  0  0  0  0  0  0  0  0  0
    0.1901    3.1298    1.4814 H   0  0  0  0  0  0  0  0  0  0  0  0
    1.0315    1.2356    1.0599 C   0  0  0  0  0  0  0  0  0  0  0  0
    2.3699    0.9814    1.4864 C   0  0  0  0  0  0  0  0  0  0  0  0
    3.1395    1.7574    1.3786 H   0  0  0  0  0  0  0  0  0  0  0  0
    2.6828   -0.2998    2.0064 C   0  0  0  0  0  0  0  0  0  0  0  0
    3.7127   -0.5299    2.3122 H   0  0  0  0  0  0  0  0  0  0  0  0
    1.6824   -1.3263    2.0656 C   0  0  0  0  0  3  0  0  0  0  0  0
    1.9570   -2.3302    2.4176 H   0  0  0  0  0  0  0  0  0  0  0  0
    0.3682   -1.0799    1.5923 C   0  0  0  0  0  3  0  0  0  0  0  0
   -0.3803   -1.8827    1.5740 H   0  0  0  0  0  0  0  0  0  0  0  0
    0.0473    0.2224    1.1013 C   0  0  0  0  0  0  0  0  0  0  0  0
   -3.2614   -2.1421    1.4501 C   0  0  0  0  0  0  0  0  0  0  0  0
   -2.5155   -2.9369    1.2433 H   0  0  0  0  0  0  0  0  0  0  0  0
   -4.2317   -2.6389    1.6586 H   0  0  0  0  0  0  0  0  0  0  0  0
   -2.9551   -1.6102    2.3747 H   0  0  0  0  0  0  0  0  0  0  0  0
   -3.6641   -1.8897   -1.6260 C   0  0  0  0  0  0  0  0  0  0  0  0
   -2.7409   -2.4521   -1.8735 H   0  0  0  0  0  0  0  0  0  0  0  0
   -3.8628   -1.1871   -2.4603 H   0  0  0  0  0  0  0  0  0  0  0  0
   -4.5108   -2.6027   -1.5622 H   0  0  0  0  0  0  0  0  0  0  0  0
   -4.7719    0.3042    0.3161 C   0  0  0  0  0  0  0  0  0  0  0  0
   -4.8806    1.0005   -0.5404 H   0  0  0  0  0  0  0  0  0  0  0  0
   -4.5579    0.9076    1.2224 H   0  0  0  0  0  0  0  0  0  0  0  0
   -5.7493   -0.1972    0.4736 H   0  0  0  0  0  0  0  0  0  0  0  0
   -2.0111    3.1620    0.1346 C   0  0  0  0  0  0  0  0  0  0  0  0
   -1.7458    4.1323   -0.3359 H   0  0  0  0  0  0  0  0  0  0  0  0
   -2.1707    3.3421    1.2187 H   0  0  0  0  0  0  0  0  0  0  0  0
   -2.9774    2.8388   -0.3029 H   0  0  0  0  0  0  0  0  0  0  0  0
   -0.7266    1.9056   -1.6187 C   0  0  0  0  0  0  0  0  0  0  0  0
   -0.3877    2.8465   -2.0933 H   0  0  0  0  0  0  0  0  0  0  0  0
   -1.6788    1.5888   -2.0836 H   0  0  0  0  0  0  0  0  0  0  0  0
    0.0292    1.1286   -1.8277 H   0  0  0  0  0  0  0  0  0  0  0  0
  1 28  1  0  0  0  0
  1 20  1  0  0  0  0
  2  1  1  0  0  0  0
  2  5  1  0  0  0  0
  3  8  1  0  0  0  0
  4  3  1  0  0  0  0
  5 19  1  0  0  0  0
  5  6  1  1  0  0  0
  7 32  1  0  0  0  0
  7  8  1  0  0  0  0
  7  5  1  0  0  0  0
  8 10  1  0  0  0  0
  8  9  1  1  0  0  0
 10 19  2  0  0  0  0
 10 11  1  0  0  0  0
 11 13  2  0  0  0  0
 12 11  1  0  0  0  0
 13 15  1  0  0  0  0
 13 14  1  0  0  0  0
 15 16  1  0  0  0  0
 17 15  1  0  0  0  0
 18 17  1  0  0  0  0
 19 17  1  0  0  0  0
 20 22  1  0  0  0  0
 20 23  1  0  0  0  0
 21 20  1  0  0  0  0
 24 27  1  0  0  0  0
 24  1  1  0  0  0  0
 25 24  1  0  0  0  0
 26 24  1  0  0  0  0
 28 31  1  0  0  0  0
 28 30  1  0  0  0  0
 29 28  1  0  0  0  0
 32 34  1  0  0  0  0
 33 32  1  0  0  0  0
 35 32  1  0  0  0  0
 36  7  1  0  0  0  0
 37 36  1  0  0  0  0
 38 36  1  0  0  0  0
 39 36  1  0  0  0  0
M  END
