2
 OpenBabel05122313113D

 32 33  0  0  1  0  0  0  0  0999 V2000
   -2.4090    2.3489    0.2402 Si  0  0  0  0  0  0  0  0  0  0  0  0
   -2.5585   -0.3359   -1.1222 C   0  0  2  0  0  3  0  0  0  0  0  0
   -1.9465    0.9651   -0.9589 C   0  0  0  0  0  0  0  0  0  0  0  0
   -0.9308    1.0428   -1.9933 C   0  0  0  0  0  0  0  0  0  0  0  0
   -0.9835   -0.1161   -2.8429 C   0  0  0  0  0  0  0  0  0  0  0  0
   -1.9635   -0.9892   -2.2805 C   0  0  0  0  0  0  0  0  0  0  0  0
   -3.7155   -0.8547   -0.3490 C   0  0  0  0  0  0  0  0  0  0  0  0
   -3.6170   -1.1704    1.0219 C   0  0  0  0  0  0  0  0  0  0  0  0
   -4.7445   -1.5903    1.7417 C   0  0  0  0  0  0  0  0  0  0  0  0
   -5.9875   -1.7123    1.0998 C   0  0  0  0  0  0  0  0  0  0  0  0
   -6.0931   -1.4201   -0.2694 C   0  0  0  0  0  0  0  0  0  0  0  0
   -4.9659   -0.9955   -0.9880 C   0  0  0  0  0  0  0  0  0  0  0  0
   -1.5407    3.9156   -0.3728 C   0  0  0  0  0  0  0  0  0  0  0  0
   -4.2876    2.5868    0.2062 C   0  0  0  0  0  0  0  0  0  0  0  0
   -1.8552    2.0049    2.0166 C   0  0  0  0  0  0  0  0  0  0  0  0
   -0.2683    1.9040   -2.1426 H   0  0  0  0  0  0  0  0  0  0  0  0
   -0.3648   -0.3100   -3.7261 H   0  0  0  0  0  0  0  0  0  0  0  0
   -2.2519   -1.9783   -2.6569 H   0  0  0  0  0  0  0  0  0  0  0  0
   -2.6305   -1.1005    1.5040 H   0  0  0  0  0  0  0  0  0  0  0  0
   -4.6490   -1.8358    2.8105 H   0  0  0  0  0  0  0  0  0  0  0  0
   -6.8721   -2.0444    1.6644 H   0  0  0  0  0  0  0  0  0  0  0  0
   -7.0624   -1.5193   -0.7817 H   0  0  0  0  0  0  0  0  0  0  0  0
   -5.0511   -0.7501   -2.0578 H   0  0  0  0  0  0  0  0  0  0  0  0
   -0.4385    3.7969   -0.3535 H   0  0  0  0  0  0  0  0  0  0  0  0
   -1.8437    4.1653   -1.4102 H   0  0  0  0  0  0  0  0  0  0  0  0
   -1.7955    4.7803    0.2739 H   0  0  0  0  0  0  0  0  0  0  0  0
   -4.8111    1.6834    0.5790 H   0  0  0  0  0  0  0  0  0  0  0  0
   -4.6461    2.7851   -0.8245 H   0  0  0  0  0  0  0  0  0  0  0  0
   -4.5834    3.4450    0.8449 H   0  0  0  0  0  0  0  0  0  0  0  0
   -2.1376    2.8465    2.6833 H   0  0  0  0  0  0  0  0  0  0  0  0
   -2.3223    1.0810    2.4106 H   0  0  0  0  0  0  0  0  0  0  0  0
   -0.7550    1.8823    2.0560 H   0  0  0  0  0  0  0  0  0  0  0  0
  1 15  1  0  0  0  0
  2  3  1  0  0  0  0
  2  7  1  6  0  0  0
  3  1  1  0  0  0  0
  4  3  2  0  0  0  0
  5  6  2  0  0  0  0
  5  4  1  0  0  0  0
  6  2  1  0  0  0  0
  7  8  1  0  0  0  0
  8 19  1  0  0  0  0
  8  9  2  0  0  0  0
  9 20  1  0  0  0  0
 10 21  1  0  0  0  0
 10  9  1  0  0  0  0
 11 10  2  0  0  0  0
 12  7  2  0  0  0  0
 12 11  1  0  0  0  0
 13 24  1  0  0  0  0
 13  1  1  0  0  0  0
 13 26  1  0  0  0  0
 14  1  1  0  0  0  0
 14 27  1  0  0  0  0
 14 29  1  0  0  0  0
 15 32  1  0  0  0  0
 15 31  1  0  0  0  0
 15 30  1  0  0  0  0
 16  4  1  0  0  0  0
 17  5  1  0  0  0  0
 18  6  1  0  0  0  0
 22 11  1  0  0  0  0
 23 12  1  0  0  0  0
 25 13  1  0  0  0  0
 28 14  1  0  0  0  0
M  END
