3
 OpenBabel05122313113D

 20 20  0  0  0  0  0  0  0  0999 V2000
    2.6338    3.0815   -1.5723 I   0  0  0  0  0  0  0  0  0  0  0  0
    3.8565   -1.7607    2.0278 I   0  0  0  0  0  0  0  0  0  0  0  0
    0.1880   -0.0967    0.2484 C   0  0  0  0  0  3  0  0  0  0  0  0
    1.0960   -0.8858    0.9970 C   0  0  0  0  0  0  0  0  0  0  0  0
    2.4555   -0.5129    0.9729 C   0  0  0  0  0  0  0  0  0  0  0  0
    2.9613    0.6132    0.2783 C   0  0  0  0  0  0  0  0  0  0  0  0
    1.9963    1.3616   -0.4356 C   0  0  0  0  0  0  0  0  0  0  0  0
    0.6231    1.0309   -0.4917 C   0  0  0  0  0  0  0  0  0  0  0  0
    0.6123   -2.0930    1.7578 C   0  0  0  0  0  0  0  0  0  0  0  0
    4.4288    0.9414    0.2926 C   0  0  0  0  0  0  0  0  0  0  0  0
   -0.3446    1.7967   -1.3591 C   0  0  0  0  0  0  0  0  0  0  0  0
    1.0706   -3.0236    1.3636 H   0  0  0  0  0  0  0  0  0  0  0  0
   -0.4905   -2.1777    1.6671 H   0  0  0  0  0  0  0  0  0  0  0  0
    0.8854   -2.0402    2.8322 H   0  0  0  0  0  0  0  0  0  0  0  0
    4.6356    1.9011   -0.2124 H   0  0  0  0  0  0  0  0  0  0  0  0
    5.0101    0.1461   -0.2205 H   0  0  0  0  0  0  0  0  0  0  0  0
    4.8142    0.9956    1.3306 H   0  0  0  0  0  0  0  0  0  0  0  0
   -0.4069    2.8660   -1.0736 H   0  0  0  0  0  0  0  0  0  0  0  0
   -1.3594    1.3570   -1.2804 H   0  0  0  0  0  0  0  0  0  0  0  0
   -0.0295    1.7725   -2.4245 H   0  0  0  0  0  0  0  0  0  0  0  0
  1  7  1  0  0  0  0
  3  4  1  0  0  0  0
  4  9  1  0  0  0  0
  5  4  2  0  0  0  0
  5  2  1  0  0  0  0
  6 10  1  0  0  0  0
  6  5  1  0  0  0  0
  7  6  2  0  0  0  0
  8  7  1  0  0  0  0
  8  3  2  0  0  0  0
  9 14  1  0  0  0  0
 10 17  1  0  0  0  0
 11 19  1  0  0  0  0
 11 18  1  0  0  0  0
 11  8  1  0  0  0  0
 12  9  1  0  0  0  0
 13  9  1  0  0  0  0
 15 10  1  0  0  0  0
 16 10  1  0  0  0  0
 20 11  1  0  0  0  0
M  END
