5
 OpenBabel05122313113D

 38 39  0  0  1  0  0  0  0  0999 V2000
    2.4724   -0.5944   -0.0294 Si  0  0  0  0  0  0  0  0  0  0  0  0
    1.6234    1.0906    0.2098 C   0  0  2  0  0  3  0  0  0  0  0  0
    0.8377    1.3374    1.4091 C   0  0  0  0  0  3  0  0  0  0  0  0
    1.0360    0.9660    2.4228 H   0  0  0  0  0  0  0  0  0  0  0  0
   -0.3465    2.1268    1.0466 C   0  0  1  0  0  3  0  0  0  0  0  0
   -0.2033    2.4841   -0.3623 C   0  0  0  0  0  0  0  0  0  0  0  0
    0.9536    1.8048   -0.8785 C   0  0  0  0  0  0  0  0  0  0  0  0
    1.3183    1.8850   -1.9098 H   0  0  0  0  0  0  0  0  0  0  0  0
   -1.5927    1.5840    1.5522 C   0  0  0  0  0  3  0  0  0  0  0  0
   -2.5442    2.0300    1.2210 H   0  0  0  0  0  0  0  0  0  0  0  0
   -1.5949    1.2289    2.5963 H   0  0  0  0  0  0  0  0  0  0  0  0
   -1.1165    3.3845   -1.1376 C   0  0  0  0  0  0  0  0  0  0  0  0
   -0.7652    4.4363   -1.0625 H   0  0  0  0  0  0  0  0  0  0  0  0
   -2.1502    3.3487   -0.7444 H   0  0  0  0  0  0  0  0  0  0  0  0
   -1.1450    3.1047   -2.2081 H   0  0  0  0  0  0  0  0  0  0  0  0
    0.8594   -1.5909   -0.1337 C   0  0  0  0  0  0  0  0  0  0  0  0
   -0.0343   -1.7706    1.0129 C   0  0  0  0  0  3  0  0  0  0  0  0
    0.2651   -1.8902    2.0617 H   0  0  0  0  0  0  0  0  0  0  0  0
   -1.3840   -1.9023    0.5258 C   0  0  0  0  0  0  0  0  0  0  0  0
   -1.3577   -1.7879   -0.9053 C   0  0  0  0  0  0  0  0  0  0  0  0
    0.0064   -1.5775   -1.3222 C   0  0  0  0  0  0  0  0  0  0  0  0
    0.3398   -1.5265   -2.3655 H   0  0  0  0  0  0  0  0  0  0  0  0
   -2.5957   -2.1621    1.3705 C   0  0  0  0  0  0  0  0  0  0  0  0
   -2.8086   -3.2515    1.4292 H   0  0  0  0  0  0  0  0  0  0  0  0
   -3.4963   -1.6680    0.9573 H   0  0  0  0  0  0  0  0  0  0  0  0
   -2.4492   -1.7894    2.4023 H   0  0  0  0  0  0  0  0  0  0  0  0
   -2.5292   -1.9566   -1.8251 C   0  0  0  0  0  0  0  0  0  0  0  0
   -2.6705   -3.0310   -2.0719 H   0  0  0  0  0  0  0  0  0  0  0  0
   -2.3748   -1.4049   -2.7716 H   0  0  0  0  0  0  0  0  0  0  0  0
   -3.4674   -1.5910   -1.3662 H   0  0  0  0  0  0  0  0  0  0  0  0
    3.5083   -1.0759    1.4659 C   0  0  0  0  0  0  0  0  0  0  0  0
    4.3789   -0.3977    1.5750 H   0  0  0  0  0  0  0  0  0  0  0  0
    3.8838   -2.1145    1.3647 H   0  0  0  0  0  0  0  0  0  0  0  0
    2.9128   -1.0183    2.3991 H   0  0  0  0  0  0  0  0  0  0  0  0
    3.4289   -0.6650   -1.6479 C   0  0  0  0  0  0  0  0  0  0  0  0
    4.3000    0.0207   -1.6194 H   0  0  0  0  0  0  0  0  0  0  0  0
    2.7857   -0.3666   -2.4998 H   0  0  0  0  0  0  0  0  0  0  0  0
    3.7996   -1.6920   -1.8421 H   0  0  0  0  0  0  0  0  0  0  0  0
  1 31  1  0  0  0  0
  2  1  1  6  0  0  0
  2  3  1  0  0  0  0
  3  4  1  0  0  0  0
  5  3  1  0  0  0  0
  5  9  1  6  0  0  0
  6  5  1  0  0  0  0
  7  6  2  0  0  0  0
  7  2  1  0  0  0  0
  8  7  1  0  0  0  0
  9 11  1  0  0  0  0
 10  9  1  0  0  0  0
 12 13  1  0  0  0  0
 12 14  1  0  0  0  0
 12  6  1  0  0  0  0
 15 12  1  0  0  0  0
 16  1  1  0  0  0  0
 16 17  1  0  0  0  0
 17 18  1  0  0  0  0
 19 17  1  0  0  0  0
 19 23  1  0  0  0  0
 20 19  2  0  0  0  0
 21 20  1  0  0  0  0
 21 16  2  0  0  0  0
 22 21  1  0  0  0  0
 23 24  1  0  0  0  0
 23 26  1  0  0  0  0
 25 23  1  0  0  0  0
 27 30  1  0  0  0  0
 27 20  1  0  0  0  0
 28 27  1  0  0  0  0
 29 27  1  0  0  0  0
 31 32  1  0  0  0  0
 31 34  1  0  0  0  0
 33 31  1  0  0  0  0
 35 36  1  0  0  0  0
 35  1  1  0  0  0  0
 37 35  1  0  0  0  0
 38 35  1  0  0  0  0
M  END
