4
 OpenBabel05122313113D

 50 51  0  0  1  0  0  0  0  0999 V2000
    2.1262   -1.1305   -0.1754 Si  0  0  0  0  0  0  0  0  0  0  0  0
    1.7093    0.6398    0.4314 C   0  0  2  0  0  3  0  0  0  0  0  0
    0.9603    0.8261    1.6784 C   0  0  2  0  0  3  0  0  0  0  0  0
    0.0223    1.9491    1.4689 C   0  0  1  0  0  3  0  0  0  0  0  0
    0.3111    2.5297    0.1651 C   0  0  0  0  0  0  0  0  0  0  0  0
    1.2944    1.7103   -0.4937 C   0  0  0  0  0  0  0  0  0  0  0  0
    1.1770    0.1952    3.0217 C   0  0  0  0  0  0  0  0  0  0  0  0
    1.9104    0.7882    3.6114 H   0  0  0  0  0  0  0  0  0  0  0  0
    1.5677   -0.8339    2.9549 H   0  0  0  0  0  0  0  0  0  0  0  0
    0.2366    0.1600    3.6057 H   0  0  0  0  0  0  0  0  0  0  0  0
   -1.3453    1.6583    1.8568 C   0  0  0  0  0  3  0  0  0  0  0  0
   -2.1348    2.3867    1.6127 H   0  0  0  0  0  0  0  0  0  0  0  0
   -1.5022    1.1335    2.8130 H   0  0  0  0  0  0  0  0  0  0  0  0
   -0.3164    3.7714   -0.3931 C   0  0  0  0  0  0  0  0  0  0  0  0
    0.3238    4.6538   -0.1739 H   0  0  0  0  0  0  0  0  0  0  0  0
   -1.3078    3.9572    0.0615 H   0  0  0  0  0  0  0  0  0  0  0  0
   -0.4503    3.7119   -1.4902 H   0  0  0  0  0  0  0  0  0  0  0  0
    1.9299    2.0604   -1.8055 C   0  0  0  0  0  0  0  0  0  0  0  0
    2.7596    2.7856   -1.6540 H   0  0  0  0  0  0  0  0  0  0  0  0
    1.2010    2.5243   -2.4981 H   0  0  0  0  0  0  0  0  0  0  0  0
    2.3637    1.1786   -2.3080 H   0  0  0  0  0  0  0  0  0  0  0  0
    0.3099   -1.6311   -0.5069 C   0  0  0  0  0  0  0  0  0  0  0  0
   -0.6543   -1.8551    0.5851 C   0  0  1  0  0  3  0  0  0  0  0  0
   -1.9620   -1.4899    0.0946 C   0  0  0  0  0  0  0  0  0  0  0  0
   -1.8423   -1.0556   -1.2668 C   0  0  0  0  0  0  0  0  0  0  0  0
   -0.4502   -1.1094   -1.6601 C   0  0  0  0  0  0  0  0  0  0  0  0
   -0.4386   -2.6038    1.8684 C   0  0  0  0  0  0  0  0  0  0  0  0
   -0.7842   -3.6561    1.7656 H   0  0  0  0  0  0  0  0  0  0  0  0
   -0.9986   -2.1507    2.7099 H   0  0  0  0  0  0  0  0  0  0  0  0
    0.6257   -2.6411    2.1555 H   0  0  0  0  0  0  0  0  0  0  0  0
   -3.2377   -1.6239    0.8716 C   0  0  0  0  0  0  0  0  0  0  0  0
   -3.6538   -2.6509    0.7773 H   0  0  0  0  0  0  0  0  0  0  0  0
   -4.0097   -0.9161    0.5140 H   0  0  0  0  0  0  0  0  0  0  0  0
   -3.0777   -1.4267    1.9489 H   0  0  0  0  0  0  0  0  0  0  0  0
   -2.9876   -0.6998   -2.1667 C   0  0  0  0  0  0  0  0  0  0  0  0
   -3.3358   -1.5974   -2.7226 H   0  0  0  0  0  0  0  0  0  0  0  0
   -2.7024    0.0697   -2.9085 H   0  0  0  0  0  0  0  0  0  0  0  0
   -3.8469   -0.3060   -1.5920 H   0  0  0  0  0  0  0  0  0  0  0  0
    0.0302   -0.9219   -3.0718 C   0  0  0  0  0  0  0  0  0  0  0  0
    0.2623   -1.8985   -3.5502 H   0  0  0  0  0  0  0  0  0  0  0  0
    0.9381   -0.2961   -3.1392 H   0  0  0  0  0  0  0  0  0  0  0  0
   -0.7454   -0.4246   -3.6847 H   0  0  0  0  0  0  0  0  0  0  0  0
    3.2359   -1.2260   -1.7052 C   0  0  0  0  0  0  0  0  0  0  0  0
    4.2002   -0.7201   -1.4921 H   0  0  0  0  0  0  0  0  0  0  0  0
    2.8140   -0.7933   -2.6287 H   0  0  0  0  0  0  0  0  0  0  0  0
    3.4522   -2.2957   -1.9074 H   0  0  0  0  0  0  0  0  0  0  0  0
    3.0478   -2.1985    1.0866 C   0  0  0  0  0  0  0  0  0  0  0  0
    4.0888   -1.8223    1.1681 H   0  0  0  0  0  0  0  0  0  0  0  0
    3.0924   -3.2413    0.7098 H   0  0  0  0  0  0  0  0  0  0  0  0
    2.6228   -2.2228    2.1054 H   0  0  0  0  0  0  0  0  0  0  0  0
  1 47  1  0  0  0  0
  2  1  1  6  0  0  0
  2  3  1  0  0  0  0
  3  7  1  1  0  0  0
  4  3  1  0  0  0  0
  4 11  1  6  0  0  0
  5  4  1  0  0  0  0
  6  5  2  0  0  0  0
  6  2  1  0  0  0  0
  7 10  1  0  0  0  0
  7  8  1  0  0  0  0
  9  7  1  0  0  0  0
 11 13  1  0  0  0  0
 12 11  1  0  0  0  0
 14 15  1  0  0  0  0
 14 16  1  0  0  0  0
 14  5  1  0  0  0  0
 17 14  1  0  0  0  0
 18 19  1  0  0  0  0
 18  6  1  0  0  0  0
 20 18  1  0  0  0  0
 21 18  1  0  0  0  0
 22  1  1  0  0  0  0
 22 23  1  0  0  0  0
 23 27  1  6  0  0  0
 24 23  1  0  0  0  0
 24 31  1  0  0  0  0
 25 24  2  0  0  0  0
 26 25  1  0  0  0  0
 26 22  2  0  0  0  0
 27 30  1  0  0  0  0
 27 29  1  0  0  0  0
 28 27  1  0  0  0  0
 31 34  1  0  0  0  0
 32 31  1  0  0  0  0
 33 31  1  0  0  0  0
 35 38  1  0  0  0  0
 35 25  1  0  0  0  0
 36 35  1  0  0  0  0
 37 35  1  0  0  0  0
 39 26  1  0  0  0  0
 40 39  1  0  0  0  0
 41 39  1  0  0  0  0
 42 39  1  0  0  0  0
 43 44  1  0  0  0  0
 43  1  1  0  0  0  0
 45 43  1  0  0  0  0
 46 43  1  0  0  0  0
 47 48  1  0  0  0  0
 47 50  1  0  0  0  0
 49 47  1  0  0  0  0
M  END
