1
 OpenBabel05122313113D

 25 26  0  0  0  0  0  0  0  0999 V2000
   -0.5475    0.2912   -0.0001 C   0  0  0  0  0  2  0  0  0  0  0  0
   -0.5376    1.7073   -0.0001 C   0  0  0  0  0  0  0  0  0  0  0  0
   -0.5155    2.9456   -0.0001 C   0  0  0  0  0  0  0  0  0  0  0  0
   -0.4955    4.3768   -0.0001 C   0  0  0  0  0  0  0  0  0  0  0  0
   -1.5825    5.1569    0.7478 C   0  0  0  0  0  0  0  0  0  0  0  0
   -1.5825    5.1569   -0.7481 C   0  0  0  0  0  0  0  0  0  0  0  0
   -1.9063   -0.3116   -0.0001 C   0  0  0  0  0  0  0  0  0  0  0  0
   -3.0641    0.5094    0.0003 C   0  0  0  0  0  0  0  0  0  0  0  0
   -4.3521   -0.0345    0.0004 C   0  0  0  0  0  0  0  0  0  0  0  0
   -4.5546   -1.4286    0.0001 C   0  0  0  0  0  0  0  0  0  0  0  0
   -3.4076   -2.2539   -0.0003 C   0  0  0  0  0  0  0  0  0  0  0  0
   -2.1217   -1.7141   -0.0004 C   0  0  0  0  0  0  0  0  0  0  0  0
   -5.9354   -2.0283    0.0002 C   0  0  0  0  0  0  0  0  0  0  0  0
    0.5059    4.8431   -0.0001 H   0  0  0  0  0  0  0  0  0  0  0  0
   -2.3431    4.5598    1.2725 H   0  0  0  0  0  0  0  0  0  0  0  0
   -1.2578    6.0643    1.2796 H   0  0  0  0  0  0  0  0  0  0  0  0
   -1.2577    6.0642   -1.2799 H   0  0  0  0  0  0  0  0  0  0  0  0
   -2.3430    4.5597   -1.2729 H   0  0  0  0  0  0  0  0  0  0  0  0
   -2.9373    1.6018    0.0005 H   0  0  0  0  0  0  0  0  0  0  0  0
   -5.2250    0.6376    0.0007 H   0  0  0  0  0  0  0  0  0  0  0  0
   -3.5296   -3.3488   -0.0005 H   0  0  0  0  0  0  0  0  0  0  0  0
   -1.2613   -2.3929   -0.0007 H   0  0  0  0  0  0  0  0  0  0  0  0
   -6.0923   -2.6730   -0.8901 H   0  0  0  0  0  0  0  0  0  0  0  0
   -6.7225   -1.2500    0.0010 H   0  0  0  0  0  0  0  0  0  0  0  0
   -6.0916   -2.6742    0.8898 H   0  0  0  0  0  0  0  0  0  0  0  0
  1  2  1  0  0  0  0
  1  7  1  0  0  0  0
  3  2  3  0  0  0  0
  4  3  1  0  0  0  0
  4 14  1  0  0  0  0
  4  5  1  0  0  0  0
  5 15  1  0  0  0  0
  5 16  1  0  0  0  0
  6  4  1  0  0  0  0
  6  5  1  0  0  0  0
  7  8  1  0  0  0  0
  8  9  2  0  0  0  0
  8 19  1  0  0  0  0
  9 20  1  0  0  0  0
 10 13  1  0  0  0  0
 10  9  1  0  0  0  0
 11 10  2  0  0  0  0
 12 11  1  0  0  0  0
 12  7  2  0  0  0  0
 13 24  1  0  0  0  0
 13 25  1  0  0  0  0
 17  6  1  0  0  0  0
 18  6  1  0  0  0  0
 21 11  1  0  0  0  0
 22 12  1  0  0  0  0
 23 13  1  0  0  0  0
M  END
