1
 OpenBabel05122313113D

 32 32  0  0  0  0  0  0  0  0999 V2000
    1.0319   -1.3691    0.0938 C   0  0  0  0  0  2  0  0  0  0  0  0
    0.9206   -2.4666    0.9127 N   0  0  0  0  0  0  0  0  0  0  0  0
    2.0167   -3.2691    0.6967 C   0  0  0  0  0  0  0  0  0  0  0  0
    2.1873   -4.2192    1.2159 H   0  0  0  0  0  0  0  0  0  0  0  0
    2.1967   -1.5907   -0.5661 N   0  0  0  0  0  0  0  0  0  0  0  0
   -0.2165   -2.7265    1.7936 C   0  0  0  0  0  0  0  0  0  0  0  0
   -0.5493   -1.7335    2.1548 H   0  0  0  0  0  0  0  0  0  0  0  0
    0.1572   -3.2922    2.6710 H   0  0  0  0  0  0  0  0  0  0  0  0
    2.8219   -2.7475   -0.2007 N   0  0  0  0  0  0  0  0  0  0  0  0
   -1.3544   -3.4695    1.0842 C   0  0  0  0  0  0  0  0  0  0  0  0
   -1.0588   -4.5293    0.9304 H   0  0  0  0  0  0  0  0  0  0  0  0
   -1.4857   -3.0247    0.0737 H   0  0  0  0  0  0  0  0  0  0  0  0
   -2.6805   -3.3848    1.8531 C   0  0  0  0  0  0  0  0  0  0  0  0
   -3.3733   -4.1514    1.4468 H   0  0  0  0  0  0  0  0  0  0  0  0
   -2.5173   -3.6651    2.9184 H   0  0  0  0  0  0  0  0  0  0  0  0
   -3.3469   -2.0079    1.7667 C   0  0  0  0  0  0  0  0  0  0  0  0
   -4.2919   -1.9781    2.3453 H   0  0  0  0  0  0  0  0  0  0  0  0
   -3.5809   -1.7576    0.7111 H   0  0  0  0  0  0  0  0  0  0  0  0
   -2.6935   -1.1987    2.1543 H   0  0  0  0  0  0  0  0  0  0  0  0
    2.8347   -0.6779   -1.5073 C   0  0  0  0  0  0  0  0  0  0  0  0
    2.0146   -0.1082   -1.9887 H   0  0  0  0  0  0  0  0  0  0  0  0
    3.3262   -1.3037   -2.2781 H   0  0  0  0  0  0  0  0  0  0  0  0
    3.8294    0.2566   -0.8185 C   0  0  0  0  0  0  0  0  0  0  0  0
    4.6174   -0.3555   -0.3283 H   0  0  0  0  0  0  0  0  0  0  0  0
    3.2971    0.7991   -0.0065 H   0  0  0  0  0  0  0  0  0  0  0  0
    4.4619    1.2549   -1.7907 C   0  0  0  0  0  0  0  0  0  0  0  0
    4.9724    0.7033   -2.6117 H   0  0  0  0  0  0  0  0  0  0  0  0
    3.6556    1.8448   -2.2808 H   0  0  0  0  0  0  0  0  0  0  0  0
    5.4508    2.2016   -1.1097 C   0  0  0  0  0  0  0  0  0  0  0  0
    5.8915    2.9207   -1.8290 H   0  0  0  0  0  0  0  0  0  0  0  0
    6.2861    1.6412   -0.6406 H   0  0  0  0  0  0  0  0  0  0  0  0
    4.9556    2.7865   -0.3071 H   0  0  0  0  0  0  0  0  0  0  0  0
  1  2  1  0  0  0  0
  2  6  1  0  0  0  0
  3  2  1  0  0  0  0
  3  4  1  0  0  0  0
  5  9  1  0  0  0  0
  5  1  1  0  0  0  0
  6  7  1  0  0  0  0
  6  8  1  0  0  0  0
  9  3  2  0  0  0  0
 10  6  1  0  0  0  0
 10 13  1  0  0  0  0
 11 10  1  0  0  0  0
 12 10  1  0  0  0  0
 13 15  1  0  0  0  0
 14 13  1  0  0  0  0
 16 13  1  0  0  0  0
 16 19  1  0  0  0  0
 16 17  1  0  0  0  0
 18 16  1  0  0  0  0
 20 23  1  0  0  0  0
 20  5  1  0  0  0  0
 21 20  1  0  0  0  0
 22 20  1  0  0  0  0
 23 24  1  0  0  0  0
 23 25  1  0  0  0  0
 26 29  1  0  0  0  0
 26 23  1  0  0  0  0
 27 26  1  0  0  0  0
 28 26  1  0  0  0  0
 29 31  1  0  0  0  0
 29 32  1  0  0  0  0
 30 29  1  0  0  0  0
M  END
