23
 OpenBabel05122313113D

 56 61  0  0  1  0  0  0  0  0999 V2000
   -0.1128   -1.4118   -0.0136 P   0  0  0  0  0  4  0  0  0  0  0  0
   -2.9622    0.4574    0.1042 C   0  0  1  0  0  3  0  0  0  0  0  0
   -1.5781    0.9751   -0.1094 C   0  0  0  0  0  0  0  0  0  0  0  0
   -1.7421    2.4444   -0.2651 C   0  0  0  0  0  0  0  0  0  0  0  0
   -0.8139    3.4292   -0.6307 C   0  0  0  0  0  0  0  0  0  0  0  0
    0.2251    3.1322   -0.8602 H   0  0  0  0  0  0  0  0  0  0  0  0
   -1.2320    4.7676   -0.7137 C   0  0  0  0  0  0  0  0  0  0  0  0
   -0.5086    5.5448   -1.0049 H   0  0  0  0  0  0  0  0  0  0  0  0
   -2.5678    5.1239   -0.4425 C   0  0  0  0  0  0  0  0  0  0  0  0
   -2.8764    6.1785   -0.5093 H   0  0  0  0  0  0  0  0  0  0  0  0
   -3.5147    4.1397   -0.1114 C   0  0  0  0  0  0  0  0  0  0  0  0
   -4.5646    4.4155    0.0724 H   0  0  0  0  0  0  0  0  0  0  0  0
   -3.1017    2.8016   -0.0368 C   0  0  0  0  0  0  0  0  0  0  0  0
   -3.8594    1.5704    0.1999 C   0  0  0  0  0  0  0  0  0  0  0  0
   -5.2275    1.3836    0.4396 C   0  0  0  0  0  0  0  0  0  0  0  0
   -5.9015    2.2506    0.5162 H   0  0  0  0  0  0  0  0  0  0  0  0
   -5.7295    0.0780    0.5656 C   0  0  0  0  0  0  0  0  0  0  0  0
   -6.8023   -0.0834    0.7513 H   0  0  0  0  0  0  0  0  0  0  0  0
   -4.8664   -1.0241    0.4349 C   0  0  0  0  0  0  0  0  0  0  0  0
   -5.2669   -2.0465    0.5087 H   0  0  0  0  0  0  0  0  0  0  0  0
   -3.4927   -0.8412    0.2014 C   0  0  0  0  0  0  0  0  0  0  0  0
   -2.8647   -1.7306    0.0819 H   0  0  0  0  0  0  0  0  0  0  0  0
   -0.3396    0.3565   -0.1060 C   0  0  0  0  0  2  0  0  0  0  0  0
   -0.8971   -2.0980    1.5045 C   0  0  0  0  0  0  0  0  0  0  0  0
   -1.1504   -1.2181    2.5756 C   0  0  0  0  0  0  0  0  0  0  0  0
   -0.9260   -0.1466    2.4668 H   0  0  0  0  0  0  0  0  0  0  0  0
   -1.7184   -1.7052    3.7618 C   0  0  0  0  0  0  0  0  0  0  0  0
   -1.9196   -1.0115    4.5917 H   0  0  0  0  0  0  0  0  0  0  0  0
   -2.0424   -3.0650    3.8823 C   0  0  0  0  0  0  0  0  0  0  0  0
   -2.4959   -3.4435    4.8107 H   0  0  0  0  0  0  0  0  0  0  0  0
   -1.7957   -3.9419    2.8130 C   0  0  0  0  0  0  0  0  0  0  0  0
   -2.0551   -5.0077    2.9007 H   0  0  0  0  0  0  0  0  0  0  0  0
   -1.2211   -3.4637    1.6270 C   0  0  0  0  0  0  0  0  0  0  0  0
   -1.0427   -4.1562    0.7922 H   0  0  0  0  0  0  0  0  0  0  0  0
   -0.7503   -2.2546   -1.5088 C   0  0  0  0  0  0  0  0  0  0  0  0
   -1.4968   -1.5262   -2.4544 C   0  0  0  0  0  0  0  0  0  0  0  0
   -1.6823   -0.4549   -2.2971 H   0  0  0  0  0  0  0  0  0  0  0  0
   -1.9719   -2.1703   -3.6059 C   0  0  0  0  0  0  0  0  0  0  0  0
   -2.5497   -1.5964   -4.3454 H   0  0  0  0  0  0  0  0  0  0  0  0
   -1.7002   -3.5297   -3.8211 C   0  0  0  0  0  0  0  0  0  0  0  0
   -2.0737   -4.0290   -4.7280 H   0  0  0  0  0  0  0  0  0  0  0  0
   -0.9322   -4.2501   -2.8911 C   0  0  0  0  0  0  0  0  0  0  0  0
   -0.6955   -5.3098   -3.0696 H   0  0  0  0  0  0  0  0  0  0  0  0
   -0.4461   -3.6136   -1.7411 C   0  0  0  0  0  0  0  0  0  0  0  0
    0.1994   -4.1677   -1.0430 H   0  0  0  0  0  0  0  0  0  0  0  0
    1.6215   -2.0005    0.0935 C   0  0  0  0  0  0  0  0  0  0  0  0
    2.4035   -2.0613   -1.0831 C   0  0  0  0  0  0  0  0  0  0  0  0
    2.0139   -1.6338   -2.0202 H   0  0  0  0  0  0  0  0  0  0  0  0
    3.6860   -2.6181   -1.0327 C   0  0  0  0  0  0  0  0  0  0  0  0
    4.2927   -2.6582   -1.9498 H   0  0  0  0  0  0  0  0  0  0  0  0
    4.2020   -3.1126    0.1801 C   0  0  0  0  0  0  0  0  0  0  0  0
    5.2130   -3.5461    0.2131 H   0  0  0  0  0  0  0  0  0  0  0  0
    3.4261   -3.0511    1.3467 C   0  0  0  0  0  0  0  0  0  0  0  0
    3.8231   -3.4368    2.2977 H   0  0  0  0  0  0  0  0  0  0  0  0
    2.1313   -2.5081    1.3059 C   0  0  0  0  0  0  0  0  0  0  0  0
    1.5189   -2.4859    2.2185 H   0  0  0  0  0  0  0  0  0  0  0  0
  1 46  1  0  0  0  0
  1 24  1  0  0  0  0
  2  3  1  6  0  0  0
  2 14  1  0  0  0  0
  2 21  1  0  0  0  0
  3 23  1  0  0  0  0
  4  3  2  0  0  0  0
  4 13  1  0  0  0  0
  5  4  1  0  0  0  0
  6  5  1  0  0  0  0
  7  5  2  0  0  0  0
  7  9  1  0  0  0  0
  8  7  1  0  0  0  0
  9 11  2  0  0  0  0
 10  9  1  0  0  0  0
 11 13  1  0  0  0  0
 11 12  1  0  0  0  0
 13 14  2  0  0  0  0
 14 15  1  0  0  0  0
 15 16  1  0  0  0  0
 15 17  2  0  0  0  0
 17 18  1  0  0  0  0
 19 20  1  0  0  0  0
 19 17  1  0  0  0  0
 21 19  2  0  0  0  0
 22 21  1  0  0  0  0
 23  1  1  0  0  0  0
 24 33  2  0  0  0  0
 24 25  1  0  0  0  0
 25 27  2  0  0  0  0
 26 25  1  0  0  0  0
 27 29  1  0  0  0  0
 27 28  1  0  0  0  0
 29 30  1  0  0  0  0
 31 32  1  0  0  0  0
 31 29  2  0  0  0  0
 33 31  1  0  0  0  0
 34 33  1  0  0  0  0
 35  1  1  0  0  0  0
 36 37  1  0  0  0  0
 36 35  2  0  0  0  0
 38 36  1  0  0  0  0
 39 38  1  0  0  0  0
 40 38  2  0  0  0  0
 40 42  1  0  0  0  0
 41 40  1  0  0  0  0
 42 44  2  0  0  0  0
 43 42  1  0  0  0  0
 44 35  1  0  0  0  0
 44 45  1  0  0  0  0
 46 55  1  0  0  0  0
 47 49  1  0  0  0  0
 47 46  2  0  0  0  0
 48 47  1  0  0  0  0
 49 51  2  0  0  0  0
 50 49  1  0  0  0  0
 51 52  1  0  0  0  0
 51 53  1  0  0  0  0
 53 54  1  0  0  0  0
 55 53  2  0  0  0  0
 55 56  1  0  0  0  0
M  END
