2
 OpenBabel05122313113D

 36 39  0  0  1  0  0  0  0  0999 V2000
    0.1140   -0.9463    2.3922 N   0  0  0  0  0  0  0  0  0  0  0  0
   -0.2064   -0.2074    1.2493 C   0  0  0  0  0  3  0  0  0  0  0  0
   -1.5414   -0.5933    0.9340 C   0  0  0  0  0  0  0  0  0  0  0  0
   -1.9459   -1.6484    1.8396 C   0  0  0  0  0  0  0  0  0  0  0  0
   -0.9246   -1.8088    2.7499 C   0  0  0  0  0  0  0  0  0  0  0  0
    1.2818   -0.8002    3.2255 C   0  0  0  0  0  0  0  0  0  0  0  0
   -2.5578   -0.0206    0.0521 C   0  0  0  0  0  0  0  0  0  0  0  0
   -3.6242   -0.8390   -0.3247 C   0  0  0  0  0  0  0  0  0  0  0  0
   -4.8156   -0.3659   -0.9849 C   0  0  0  0  0  0  0  0  0  0  0  0
   -5.8687   -1.1940   -1.2854 C   0  0  0  0  0  0  0  0  0  0  0  0
   -5.8369   -2.5985   -0.9204 C   0  0  0  0  0  0  0  0  0  0  0  0
   -4.7742   -3.1209   -0.2562 C   0  0  0  0  0  0  0  0  0  0  0  0
   -3.5653   -2.3066    0.1141 C   0  0  2  0  0  0  0  0  0  0  0  0
   -3.2423   -2.3681    1.6338 C   0  0  0  0  0  0  0  0  0  0  0  0
   -2.6166    1.4554   -0.1364 C   0  0  0  0  0  0  0  0  0  0  0  0
   -2.5577    2.2899    1.0050 C   0  0  0  0  0  0  0  0  0  0  0  0
   -2.6918    3.6802    0.8978 C   0  0  0  0  0  0  0  0  0  0  0  0
   -2.8705    4.2786   -0.3622 C   0  0  0  0  0  0  0  0  0  0  0  0
   -2.9249    3.4655   -1.5059 C   0  0  0  0  0  0  0  0  0  0  0  0
   -2.8074    2.0714   -1.3940 C   0  0  0  0  0  0  0  0  0  0  0  0
   -0.8276   -2.4662    3.6219 H   0  0  0  0  0  0  0  0  0  0  0  0
    1.0705   -0.1760    4.1225 H   0  0  0  0  0  0  0  0  0  0  0  0
    2.0773   -0.3081    2.6456 H   0  0  0  0  0  0  0  0  0  0  0  0
    1.6419   -1.7907    3.5728 H   0  0  0  0  0  0  0  0  0  0  0  0
   -4.8831    0.7026   -1.2340 H   0  0  0  0  0  0  0  0  0  0  0  0
   -6.7613   -0.7887   -1.7856 H   0  0  0  0  0  0  0  0  0  0  0  0
   -6.6978   -3.2370   -1.1756 H   0  0  0  0  0  0  0  0  0  0  0  0
   -4.7645   -4.1846    0.0356 H   0  0  0  0  0  0  0  0  0  0  0  0
   -2.6710   -2.7710   -0.3783 H   0  0  0  0  0  0  0  0  0  0  0  0
   -4.0801   -1.8977    2.1984 H   0  0  0  0  0  0  0  0  0  0  0  0
   -3.1786   -3.4240    1.9689 H   0  0  0  0  0  0  0  0  0  0  0  0
   -2.4255    1.8160    1.9895 H   0  0  0  0  0  0  0  0  0  0  0  0
   -2.6589    4.3048    1.8044 H   0  0  0  0  0  0  0  0  0  0  0  0
   -2.9703    5.3712   -0.4505 H   0  0  0  0  0  0  0  0  0  0  0  0
   -3.0609    3.9208   -2.4992 H   0  0  0  0  0  0  0  0  0  0  0  0
   -2.8325    1.4436   -2.2953 H   0  0  0  0  0  0  0  0  0  0  0  0
  1  5  1  0  0  0  0
  1  6  1  0  0  0  0
  2  1  1  0  0  0  0
  3  2  2  0  0  0  0
  3  4  1  0  0  0  0
  4  5  2  0  0  0  0
  5 21  1  0  0  0  0
  6 24  1  0  0  0  0
  6 22  1  0  0  0  0
  7  3  1  0  0  0  0
  8  7  2  0  0  0  0
  8 13  1  0  0  0  0
  9  8  1  0  0  0  0
 10  9  2  0  0  0  0
 10 11  1  0  0  0  0
 11 12  2  0  0  0  0
 12 28  1  0  0  0  0
 12 13  1  0  0  0  0
 13 29  1  6  0  0  0
 13 14  1  0  0  0  0
 14  4  1  0  0  0  0
 14 31  1  0  0  0  0
 14 30  1  0  0  0  0
 15  7  1  0  0  0  0
 15 16  1  0  0  0  0
 16 32  1  0  0  0  0
 17 16  2  0  0  0  0
 17 33  1  0  0  0  0
 18 17  1  0  0  0  0
 19 20  1  0  0  0  0
 19 18  2  0  0  0  0
 20 15  2  0  0  0  0
 23  6  1  0  0  0  0
 25  9  1  0  0  0  0
 26 10  1  0  0  0  0
 27 11  1  0  0  0  0
 34 18  1  0  0  0  0
 35 19  1  0  0  0  0
 36 20  1  0  0  0  0
M  END
