4
 OpenBabel05122313113D

 21 21  0  0  1  0  0  0  0  0999 V2000
   -2.8816   -0.0586   -1.5474 O   0  0  0  0  0  0  0  0  0  0  0  0
   -2.0954    0.2710   -0.6595 C   0  0  0  0  0  0  0  0  0  0  0  0
   -1.8154   -0.4300    0.6359 C   0  0  1  0  0  3  0  0  0  0  0  0
   -1.0259    0.4442    1.4956 C   0  0  2  0  0  3  0  0  0  0  0  0
   -0.6675    1.6156    0.6906 C   0  0  1  0  0  3  0  0  0  0  0  0
   -1.1233    1.3999   -0.6573 C   0  0  2  0  0  3  0  0  0  0  0  0
   -2.6039   -1.6173    1.0891 C   0  0  0  0  0  0  0  0  0  0  0  0
   -0.0212   -0.1680    2.3295 C   0  0  0  0  0  3  0  0  0  0  0  0
   -0.0159    2.8584    1.2224 C   0  0  0  0  0  0  0  0  0  0  0  0
   -1.0623    2.3645   -1.7970 C   0  0  0  0  0  0  0  0  0  0  0  0
   -0.2627   -1.1205    2.8248 H   0  0  0  0  0  0  0  0  0  0  0  0
    0.6583    0.4867    2.8996 H   0  0  0  0  0  0  0  0  0  0  0  0
   -2.8929   -2.2411    0.2225 H   0  0  0  0  0  0  0  0  0  0  0  0
   -3.5391   -1.2581    1.5689 H   0  0  0  0  0  0  0  0  0  0  0  0
   -2.0601   -2.2405    1.8244 H   0  0  0  0  0  0  0  0  0  0  0  0
    0.6335    2.6529    2.0952 H   0  0  0  0  0  0  0  0  0  0  0  0
   -0.8028    3.5679    1.5589 H   0  0  0  0  0  0  0  0  0  0  0  0
    0.5817    3.3797    0.4499 H   0  0  0  0  0  0  0  0  0  0  0  0
   -0.1131    2.9351   -1.8322 H   0  0  0  0  0  0  0  0  0  0  0  0
   -1.8925    3.1011   -1.7297 H   0  0  0  0  0  0  0  0  0  0  0  0
   -1.1981    1.8203   -2.7521 H   0  0  0  0  0  0  0  0  0  0  0  0
  1  2  2  0  0  0  0
  2  6  1  0  0  0  0
  2  3  1  0  0  0  0
  3  7  1  1  0  0  0
  3  4  1  0  0  0  0
  4  8  1  6  0  0  0
  5  9  1  1  0  0  0
  5  4  1  0  0  0  0
  6 10  1  1  0  0  0
  6  5  1  0  0  0  0
  7 14  1  0  0  0  0
  7 15  1  0  0  0  0
  8 11  1  0  0  0  0
  8 12  1  0  0  0  0
  9 17  1  0  0  0  0
  9 16  1  0  0  0  0
 10 20  1  0  0  0  0
 13  7  1  0  0  0  0
 18  9  1  0  0  0  0
 19 10  1  0  0  0  0
 21 10  1  0  0  0  0
M  END
