3
 OpenBabel05122313113D

 31 32  0  0  0  0  0  0  0  0999 V2000
    0.6153   -0.4478    0.0951 N   0  0  0  0  0  0  0  0  0  0  0  0
    1.8210   -1.0448    0.0225 N   0  0  0  0  0  0  0  0  0  0  0  0
   -0.5765   -1.1023    0.0213 C   0  0  0  0  0  2  0  0  0  0  0  0
   -0.4115   -2.5974   -0.0962 C   0  0  0  0  0  0  0  0  0  0  0  0
    2.8915   -0.2861   -0.0167 C   0  0  0  0  0  0  0  0  0  0  0  0
    4.3054   -2.3462    0.2536 C   0  0  0  0  0  0  0  0  0  0  0  0
    5.5446   -2.9916    0.2250 C   0  0  0  0  0  0  0  0  0  0  0  0
    6.7142   -2.2733   -0.0851 C   0  0  0  0  0  0  0  0  0  0  0  0
    6.6286   -0.9022   -0.3700 C   0  0  0  0  0  0  0  0  0  0  0  0
    5.3876   -0.2504   -0.3433 C   0  0  0  0  0  0  0  0  0  0  0  0
    4.2056   -0.9618   -0.0297 C   0  0  0  0  0  0  0  0  0  0  0  0
    3.3951    1.9647    1.0122 C   0  0  0  0  0  0  0  0  0  0  0  0
    3.2695    3.3607    1.0312 C   0  0  0  0  0  0  0  0  0  0  0  0
    2.5623    4.0211    0.0132 C   0  0  0  0  0  0  0  0  0  0  0  0
    1.9859    3.2802   -1.0301 C   0  0  0  0  0  0  0  0  0  0  0  0
    2.1159    1.8842   -1.0559 C   0  0  0  0  0  0  0  0  0  0  0  0
    2.8172    1.2081   -0.0312 C   0  0  0  0  0  0  0  0  0  0  0  0
    0.1752   -2.8494   -1.0047 H   0  0  0  0  0  0  0  0  0  0  0  0
    0.1813   -2.9883    0.7576 H   0  0  0  0  0  0  0  0  0  0  0  0
   -1.3799   -3.1208   -0.1357 H   0  0  0  0  0  0  0  0  0  0  0  0
    3.3858   -2.8959    0.4989 H   0  0  0  0  0  0  0  0  0  0  0  0
    5.6043   -4.0671    0.4525 H   0  0  0  0  0  0  0  0  0  0  0  0
    7.6892   -2.7834   -0.1029 H   0  0  0  0  0  0  0  0  0  0  0  0
    7.5365   -0.3325   -0.6201 H   0  0  0  0  0  0  0  0  0  0  0  0
    5.3284    0.8218   -0.5805 H   0  0  0  0  0  0  0  0  0  0  0  0
    3.9391    1.4457    1.8159 H   0  0  0  0  0  0  0  0  0  0  0  0
    3.7197    3.9375    1.8534 H   0  0  0  0  0  0  0  0  0  0  0  0
    2.4561    5.1161    0.0363 H   0  0  0  0  0  0  0  0  0  0  0  0
    1.4193    3.7840   -1.8270 H   0  0  0  0  0  0  0  0  0  0  0  0
    1.6621    1.3128   -1.8797 H   0  0  0  0  0  0  0  0  0  0  0  0
    0.5765    0.5816    0.1713 H   0  0  0  0  0  0  0  0  0  0  0  0
  1 31  1  0  0  0  0
  2  1  1  0  0  0  0
  3  1  1  0  0  0  0
  4  3  1  0  0  0  0
  4 19  1  0  0  0  0
  5  2  2  0  0  0  0
  6 21  1  0  0  0  0
  7  6  1  0  0  0  0
  7 22  1  0  0  0  0
  8  7  2  0  0  0  0
  9 10  2  0  0  0  0
  9  8  1  0  0  0  0
 10 11  1  0  0  0  0
 11  5  1  0  0  0  0
 11  6  2  0  0  0  0
 12 13  1  0  0  0  0
 12 26  1  0  0  0  0
 13 27  1  0  0  0  0
 14 28  1  0  0  0  0
 14 13  2  0  0  0  0
 15 14  1  0  0  0  0
 16 15  2  0  0  0  0
 16 17  1  0  0  0  0
 17  5  1  0  0  0  0
 17 12  2  0  0  0  0
 18  4  1  0  0  0  0
 20  4  1  0  0  0  0
 23  8  1  0  0  0  0
 24  9  1  0  0  0  0
 25 10  1  0  0  0  0
 29 15  1  0  0  0  0
 30 16  1  0  0  0  0
M  END
