2
 OpenBabel05122313113D

 48 50  0  0  1  0  0  0  0  0999 V2000
   -0.4206   -1.7182    1.3884 O   0  0  0  0  0  0  0  0  0  0  0  0
   -0.5621   -0.7744    0.4575 C   0  0  0  0  0  2  0  0  0  0  0  0
    0.7663   -0.5189   -0.0936 C   0  0  0  0  0  0  0  0  0  0  0  0
    1.4363    0.6661   -0.2198 C   0  0  0  0  0  0  0  0  0  0  0  0
    2.8397    0.3343   -0.7957 C   0  0  1  0  0  0  0  0  0  0  0  0
    3.5549   -0.4475    0.3466 C   0  0  0  0  0  0  0  0  0  0  0  0
    2.9057   -1.6274    0.4904 C   0  0  0  0  0  0  0  0  0  0  0  0
    1.7528   -1.6465   -0.5502 C   0  0  2  0  0  0  0  0  0  0  0  0
    2.4326   -0.8589   -1.7174 C   0  0  2  0  0  0  0  0  0  0  0  0
    3.6198    1.4790   -1.4198 C   0  0  0  0  0  0  0  0  0  0  0  0
    4.6665    0.1430    1.1453 C   0  0  0  0  0  0  0  0  0  0  0  0
    3.0927   -2.7106    1.4967 C   0  0  0  0  0  0  0  0  0  0  0  0
    1.1560   -3.0012   -0.8932 C   0  0  0  0  0  0  0  0  0  0  0  0
    3.5520   -1.5674   -2.4658 C   0  0  0  0  0  0  0  0  0  0  0  0
    1.0815    1.9716    0.3550 C   0  0  0  0  0  0  0  0  0  0  0  0
    0.8784    2.0762    1.7518 C   0  0  0  0  0  0  0  0  0  0  0  0
    0.5992    3.3152    2.3433 C   0  0  0  0  0  0  0  0  0  0  0  0
    0.5070    4.4691    1.5505 C   0  0  0  0  0  0  0  0  0  0  0  0
    0.6974    4.3768    0.1620 C   0  0  0  0  0  0  0  0  0  0  0  0
    0.9927    3.1430   -0.4322 C   0  0  0  0  0  0  0  0  0  0  0  0
   -1.5283   -2.3085    2.1011 C   0  0  0  0  0  0  0  0  0  0  0  0
   -0.9673   -3.3595    3.0370 C   0  0  0  0  0  0  0  0  0  0  0  0
    1.6607   -0.5212   -2.4425 H   0  0  0  0  0  0  0  0  0  0  0  0
    3.0911    1.8877   -2.3038 H   0  0  0  0  0  0  0  0  0  0  0  0
    4.6188    1.1355   -1.7548 H   0  0  0  0  0  0  0  0  0  0  0  0
    3.7704    2.3118   -0.7047 H   0  0  0  0  0  0  0  0  0  0  0  0
    5.0156   -0.5456    1.9396 H   0  0  0  0  0  0  0  0  0  0  0  0
    4.3473    1.0913    1.6319 H   0  0  0  0  0  0  0  0  0  0  0  0
    5.5424    0.4003    0.5116 H   0  0  0  0  0  0  0  0  0  0  0  0
    3.9355   -2.4999    2.1836 H   0  0  0  0  0  0  0  0  0  0  0  0
    3.2830   -3.6949    1.0170 H   0  0  0  0  0  0  0  0  0  0  0  0
    2.1714   -2.8345    2.1077 H   0  0  0  0  0  0  0  0  0  0  0  0
    1.9431   -3.6896   -1.2607 H   0  0  0  0  0  0  0  0  0  0  0  0
    0.3862   -2.9120   -1.6847 H   0  0  0  0  0  0  0  0  0  0  0  0
    0.6802   -3.4764   -0.0145 H   0  0  0  0  0  0  0  0  0  0  0  0
    4.0166   -0.8862   -3.2073 H   0  0  0  0  0  0  0  0  0  0  0  0
    3.1575   -2.4379   -3.0282 H   0  0  0  0  0  0  0  0  0  0  0  0
    4.3453   -1.9269   -1.7808 H   0  0  0  0  0  0  0  0  0  0  0  0
    0.9573    1.1668    2.3662 H   0  0  0  0  0  0  0  0  0  0  0  0
    0.4434    3.3788    3.4310 H   0  0  0  0  0  0  0  0  0  0  0  0
    0.2778    5.4409    2.0129 H   0  0  0  0  0  0  0  0  0  0  0  0
    0.6097    5.2761   -0.4664 H   0  0  0  0  0  0  0  0  0  0  0  0
    1.1216    3.0719   -1.5214 H   0  0  0  0  0  0  0  0  0  0  0  0
   -2.2321   -2.7441    1.3639 H   0  0  0  0  0  0  0  0  0  0  0  0
   -2.0566   -1.5050    2.6511 H   0  0  0  0  0  0  0  0  0  0  0  0
   -0.4417   -4.1569    2.4752 H   0  0  0  0  0  0  0  0  0  0  0  0
   -1.7920   -3.8271    3.6098 H   0  0  0  0  0  0  0  0  0  0  0  0
   -0.2547   -2.9126    3.7582 H   0  0  0  0  0  0  0  0  0  0  0  0
  1 21  1  0  0  0  0
  2  1  1  0  0  0  0
  3  2  1  0  0  0  0
  4  3  2  0  0  0  0
  4 15  1  0  0  0  0
  5 10  1  6  0  0  0
  5  4  1  0  0  0  0
  5  6  1  0  0  0  0
  6  7  2  0  0  0  0
  6 11  1  0  0  0  0
  7 12  1  0  0  0  0
  8 13  1  6  0  0  0
  8  3  1  0  0  0  0
  8  7  1  0  0  0  0
  9 23  1  6  0  0  0
  9  5  1  0  0  0  0
  9  8  1  0  0  0  0
 10 26  1  0  0  0  0
 11 28  1  0  0  0  0
 11 27  1  0  0  0  0
 12 32  1  0  0  0  0
 12 30  1  0  0  0  0
 13 35  1  0  0  0  0
 14 38  1  0  0  0  0
 14  9  1  0  0  0  0
 15 16  1  0  0  0  0
 16 17  2  0  0  0  0
 16 39  1  0  0  0  0
 17 40  1  0  0  0  0
 18 41  1  0  0  0  0
 18 17  1  0  0  0  0
 19 18  2  0  0  0  0
 20 19  1  0  0  0  0
 20 15  2  0  0  0  0
 21 45  1  0  0  0  0
 21 22  1  0  0  0  0
 22 47  1  0  0  0  0
 22 48  1  0  0  0  0
 24 10  1  0  0  0  0
 25 10  1  0  0  0  0
 29 11  1  0  0  0  0
 31 12  1  0  0  0  0
 33 13  1  0  0  0  0
 34 13  1  0  0  0  0
 36 14  1  0  0  0  0
 37 14  1  0  0  0  0
 42 19  1  0  0  0  0
 43 20  1  0  0  0  0
 44 21  1  0  0  0  0
 46 22  1  0  0  0  0
M  END
