5
 OpenBabel05122313113D

 53 55  0  0  0  0  0  0  0  0999 V2000
    0.2854   -0.1686    0.5693 N   0  0  0  0  0  0  0  0  0  0  0  0
   -3.0581    2.1454    0.8652 N   0  0  0  0  0  0  0  0  0  0  0  0
   -0.9335    1.7788    0.7551 N   0  0  0  0  0  0  0  0  0  0  0  0
    0.3179    1.1086    0.5183 C   0  0  0  0  0  0  0  0  0  0  0  0
   -2.1545    1.2177    0.4431 C   0  0  0  0  0  2  0  0  0  0  0  0
   -2.4328    3.2545    1.4303 C   0  0  0  0  0  0  0  0  0  0  0  0
   -2.9917    4.1032    1.8365 H   0  0  0  0  0  0  0  0  0  0  0  0
   -1.0859    3.0273    1.3581 C   0  0  0  0  0  0  0  0  0  0  0  0
   -0.2349    3.6259    1.6937 H   0  0  0  0  0  0  0  0  0  0  0  0
   -4.4988    1.9947    0.7257 C   0  0  0  0  0  0  0  0  0  0  0  0
   -4.6901    1.0448    0.1928 H   0  0  0  0  0  0  0  0  0  0  0  0
   -4.9200    2.8369    0.1424 H   0  0  0  0  0  0  0  0  0  0  0  0
   -4.9825    1.9595    1.7219 H   0  0  0  0  0  0  0  0  0  0  0  0
    1.3462   -1.0249    0.2329 C   0  0  0  0  0  0  0  0  0  0  0  0
    1.8666   -1.8425    1.2798 C   0  0  0  0  0  0  0  0  0  0  0  0
    2.8995   -2.7395    0.9709 C   0  0  0  0  0  0  0  0  0  0  0  0
    3.3304   -3.3628    1.7673 H   0  0  0  0  0  0  0  0  0  0  0  0
    3.3834   -2.8629   -0.3408 C   0  0  0  0  0  0  0  0  0  0  0  0
    4.1889   -3.5777   -0.5666 H   0  0  0  0  0  0  0  0  0  0  0  0
    2.8257   -2.0877   -1.3611 C   0  0  0  0  0  0  0  0  0  0  0  0
    3.1887   -2.2079   -2.3935 H   0  0  0  0  0  0  0  0  0  0  0  0
    1.8027   -1.1529   -1.1072 C   0  0  0  0  0  0  0  0  0  0  0  0
    1.2654   -1.7354    2.6774 C   0  0  0  0  0  0  0  0  0  0  0  0
    1.0675   -0.6565    2.8665 H   0  0  0  0  0  0  0  0  0  0  0  0
   -0.0948   -2.4608    2.7233 C   0  0  0  0  0  0  0  0  0  0  0  0
   -0.7858   -2.0703    1.9508 H   0  0  0  0  0  0  0  0  0  0  0  0
   -0.5746   -2.3343    3.7160 H   0  0  0  0  0  0  0  0  0  0  0  0
    0.0412   -3.5464    2.5413 H   0  0  0  0  0  0  0  0  0  0  0  0
    2.1911   -2.2311    3.7936 C   0  0  0  0  0  0  0  0  0  0  0  0
    3.1838   -1.7374    3.7612 H   0  0  0  0  0  0  0  0  0  0  0  0
    2.3553   -3.3269    3.7339 H   0  0  0  0  0  0  0  0  0  0  0  0
    1.7384   -2.0271    4.7848 H   0  0  0  0  0  0  0  0  0  0  0  0
    1.1933   -0.3743   -2.2673 C   0  0  0  0  0  0  0  0  0  0  0  0
    0.4333    0.3215   -1.8573 H   0  0  0  0  0  0  0  0  0  0  0  0
    2.2484    0.4736   -2.9988 C   0  0  0  0  0  0  0  0  0  0  0  0
    2.7859    1.1506   -2.3054 H   0  0  0  0  0  0  0  0  0  0  0  0
    1.7724    1.0929   -3.7866 H   0  0  0  0  0  0  0  0  0  0  0  0
    3.0046   -0.1683   -3.4965 H   0  0  0  0  0  0  0  0  0  0  0  0
    0.4501   -1.3146   -3.2338 C   0  0  0  0  0  0  0  0  0  0  0  0
   -0.3630   -1.8678   -2.7207 H   0  0  0  0  0  0  0  0  0  0  0  0
    1.1442   -2.0540   -3.6846 H   0  0  0  0  0  0  0  0  0  0  0  0
   -0.0040   -0.7326   -4.0626 H   0  0  0  0  0  0  0  0  0  0  0  0
    1.4741    1.9880    0.2011 C   0  0  0  0  0  0  0  0  0  0  0  0
    1.3168    3.1033   -0.6520 C   0  0  0  0  0  0  0  0  0  0  0  0
    0.3234    3.3429   -1.0599 H   0  0  0  0  0  0  0  0  0  0  0  0
    2.4257    3.8815   -1.0097 C   0  0  0  0  0  0  0  0  0  0  0  0
    2.2961    4.7383   -1.6876 H   0  0  0  0  0  0  0  0  0  0  0  0
    3.6991    3.5615   -0.5120 C   0  0  0  0  0  0  0  0  0  0  0  0
    4.5697    4.1729   -0.7933 H   0  0  0  0  0  0  0  0  0  0  0  0
    3.8612    2.4575    0.3415 C   0  0  0  0  0  0  0  0  0  0  0  0
    4.8575    2.2039    0.7330 H   0  0  0  0  0  0  0  0  0  0  0  0
    2.7587    1.6692    0.6933 C   0  0  0  0  0  0  0  0  0  0  0  0
    2.8886    0.7975    1.3493 H   0  0  0  0  0  0  0  0  0  0  0  0
  2  6  1  0  0  0  0
  3  8  1  0  0  0  0
  4  1  2  0  0  0  0
  4  3  1  0  0  0  0
  5  3  1  0  0  0  0
  5  2  1  0  0  0  0
  6  7  1  0  0  0  0
  8  6  2  0  0  0  0
  8  9  1  0  0  0  0
 10  2  1  0  0  0  0
 10 13  1  0  0  0  0
 11 10  1  0  0  0  0
 12 10  1  0  0  0  0
 14  1  1  0  0  0  0
 14 15  1  0  0  0  0
 15 23  1  0  0  0  0
 16 15  2  0  0  0  0
 16 17  1  0  0  0  0
 18 16  1  0  0  0  0
 19 18  1  0  0  0  0
 20 22  1  0  0  0  0
 20 18  2  0  0  0  0
 21 20  1  0  0  0  0
 22 14  2  0  0  0  0
 23 25  1  0  0  0  0
 23 24  1  0  0  0  0
 23 29  1  0  0  0  0
 25 27  1  0  0  0  0
 26 25  1  0  0  0  0
 28 25  1  0  0  0  0
 29 32  1  0  0  0  0
 30 29  1  0  0  0  0
 31 29  1  0  0  0  0
 33 34  1  0  0  0  0
 33 22  1  0  0  0  0
 35 36  1  0  0  0  0
 35 33  1  0  0  0  0
 37 35  1  0  0  0  0
 38 35  1  0  0  0  0
 39 40  1  0  0  0  0
 39 33  1  0  0  0  0
 41 39  1  0  0  0  0
 42 39  1  0  0  0  0
 43  4  1  0  0  0  0
 43 52  1  0  0  0  0
 44 43  2  0  0  0  0
 45 44  1  0  0  0  0
 46 44  1  0  0  0  0
 46 48  2  0  0  0  0
 47 46  1  0  0  0  0
 48 50  1  0  0  0  0
 49 48  1  0  0  0  0
 50 52  2  0  0  0  0
 50 51  1  0  0  0  0
 52 53  1  0  0  0  0
M  END
