4
 OpenBabel05122313113D

 37 38  0  0  0  0  0  0  0  0999 V2000
   -0.5259    2.1568    2.4043 C   0  0  0  0  0  0  0  0  0  0  0  0
   -0.6442    3.0957    2.9786 H   0  0  0  0  0  0  0  0  0  0  0  0
   -0.3910    1.3120    3.1140 H   0  0  0  0  0  0  0  0  0  0  0  0
    1.0297    1.3737    0.6325 C   0  0  0  0  0  2  0  0  0  0  0  0
    2.2638    1.7670    0.2077 N   0  0  0  0  0  0  0  0  0  0  0  0
    1.7000    3.2123    1.7926 C   0  0  0  0  0  0  0  0  0  0  0  0
    1.6249    4.0186    2.5278 H   0  0  0  0  0  0  0  0  0  0  0  0
    0.6890    2.2761    1.6022 N   0  0  0  0  0  0  0  0  0  0  0  0
    2.6949    2.8856    0.9083 C   0  0  0  0  0  0  0  0  0  0  0  0
    3.6609    3.3589    0.7101 H   0  0  0  0  0  0  0  0  0  0  0  0
   -3.3550    0.3610    0.6630 N   0  0  0  0  0  0  0  0  0  0  0  0
   -1.7348    1.9183    1.5301 C   0  0  0  0  0  0  0  0  0  0  0  0
    3.8465   -0.1080   -0.2231 C   0  0  0  0  0  0  0  0  0  0  0  0
    3.1495   -0.7389    0.3682 H   0  0  0  0  0  0  0  0  0  0  0  0
    4.6021    0.2861    0.4931 H   0  0  0  0  0  0  0  0  0  0  0  0
    4.5282   -0.9638   -1.2972 C   0  0  0  0  0  0  0  0  0  0  0  0
    4.9978   -1.8354   -0.7947 H   0  0  0  0  0  0  0  0  0  0  0  0
    3.7464   -1.3893   -1.9642 H   0  0  0  0  0  0  0  0  0  0  0  0
    5.5810   -0.2295   -2.1318 C   0  0  0  0  0  0  0  0  0  0  0  0
    5.1406    0.5890   -2.7383 H   0  0  0  0  0  0  0  0  0  0  0  0
    6.0854   -0.9175   -2.8396 H   0  0  0  0  0  0  0  0  0  0  0  0
    6.3669    0.2192   -1.4873 H   0  0  0  0  0  0  0  0  0  0  0  0
   -2.2468    0.6110    1.4239 C   0  0  0  0  0  3  0  0  0  0  0  0
   -1.8863   -0.2120    2.0601 H   0  0  0  0  0  0  0  0  0  0  0  0
   -3.8640    1.3308   -0.1540 C   0  0  0  0  0  0  0  0  0  0  0  0
   -4.6896    1.0255   -0.8096 H   0  0  0  0  0  0  0  0  0  0  0  0
   -2.2984    2.9316    0.7496 C   0  0  0  0  0  0  0  0  0  0  0  0
   -1.8904    3.9521    0.7870 H   0  0  0  0  0  0  0  0  0  0  0  0
   -3.3557    2.6189   -0.1274 C   0  0  0  0  0  0  0  0  0  0  0  0
   -3.7881    3.3761   -0.7941 H   0  0  0  0  0  0  0  0  0  0  0  0
    3.0452    1.0580   -0.8082 C   0  0  0  0  0  0  0  0  0  0  0  0
    3.6973    1.8074   -1.2988 H   0  0  0  0  0  0  0  0  0  0  0  0
    2.3212    0.6973   -1.5678 H   0  0  0  0  0  0  0  0  0  0  0  0
   -3.8740   -1.0031    0.6081 C   0  0  0  0  0  0  0  0  0  0  0  0
   -4.8767   -0.9992    0.1477 H   0  0  0  0  0  0  0  0  0  0  0  0
   -3.9268   -1.4213    1.6294 H   0  0  0  0  0  0  0  0  0  0  0  0
   -3.1643   -1.6295    0.0003 H   0  0  0  0  0  0  0  0  0  0  0  0
  1  2  1  0  0  0  0
  1  3  1  0  0  0  0
  4  8  1  0  0  0  0
  5  4  1  0  0  0  0
  5  9  1  0  0  0  0
  6  7  1  0  0  0  0
  8  6  1  0  0  0  0
  8  1  1  0  0  0  0
  9  6  2  0  0  0  0
 10  9  1  0  0  0  0
 11 23  1  0  0  0  0
 12  1  1  0  0  0  0
 13 14  1  0  0  0  0
 13 15  1  0  0  0  0
 16 17  1  0  0  0  0
 16 13  1  0  0  0  0
 18 16  1  0  0  0  0
 19 22  1  0  0  0  0
 19 16  1  0  0  0  0
 20 19  1  0  0  0  0
 21 19  1  0  0  0  0
 23 12  1  0  0  0  0
 23 24  1  0  0  0  0
 25 29  2  0  0  0  0
 25 11  1  0  0  0  0
 26 25  1  0  0  0  0
 27 28  1  0  0  0  0
 27 12  2  0  0  0  0
 29 27  1  0  0  0  0
 30 29  1  0  0  0  0
 31 13  1  0  0  0  0
 31  5  1  0  0  0  0
 32 31  1  0  0  0  0
 33 31  1  0  0  0  0
 34 11  1  0  0  0  0
 34 36  1  0  0  0  0
 35 34  1  0  0  0  0
 37 34  1  0  0  0  0
M  END
