12
 OpenBabel05122313113D

 43 43  0  0  1  0  0  0  0  0999 V2000
   -1.7795    0.8808   -0.8419 Si  0  0  0  0  0  0  0  0  0  0  0  0
   -0.1234   -2.3643   -1.4430 Si  0  0  0  0  0  0  0  0  0  0  0  0
   -1.5634    2.5214   -0.9016 F   0  0  0  0  0  0  0  0  0  0  0  0
   -1.3629    0.4732   -2.3885 F   0  0  0  0  0  0  0  0  0  0  0  0
   -1.7819    1.4831    1.7708 O   0  0  0  0  0  0  0  0  0  0  0  0
   -0.3834    0.0098    2.7882 O   0  0  0  0  0  0  0  0  0  0  0  0
    1.3106   -2.5488    1.7867 O   0  0  0  0  0  0  0  0  0  0  0  0
   -0.9559   -2.5968    1.7853 O   0  0  0  0  0  0  0  0  0  0  0  0
   -2.1061    2.0379    3.0444 C   0  0  0  0  0  0  0  0  0  0  0  0
   -0.8774    0.4437    1.7585 C   0  0  0  0  0  0  0  0  0  0  0  0
   -0.6659    0.0014    0.3540 C   0  0  1  0  0  3  0  0  0  0  0  0
    0.0503   -1.2583    0.1289 C   0  0  1  0  0  3  0  0  0  0  0  0
    0.2525   -2.1493    1.3242 C   0  0  0  0  0  0  0  0  0  0  0  0
   -0.8992   -3.3839    2.9772 C   0  0  0  0  0  0  0  0  0  0  0  0
   -3.6040    0.5620   -0.6127 C   0  0  0  0  0  0  0  0  0  0  0  0
   -4.5856    1.3805   -1.2127 C   0  0  0  0  0  0  0  0  0  0  0  0
   -5.9505    1.1175   -1.0217 C   0  0  0  0  0  0  0  0  0  0  0  0
   -6.3517    0.0350   -0.2218 C   0  0  0  0  0  0  0  0  0  0  0  0
   -5.3861   -0.7815    0.3892 C   0  0  0  0  0  0  0  0  0  0  0  0
   -4.0216   -0.5183    0.1972 C   0  0  0  0  0  0  0  0  0  0  0  0
    0.8400   -1.6950   -2.9288 C   0  0  0  0  0  0  0  0  0  0  0  0
   -1.9434   -2.6185   -1.9084 C   0  0  0  0  0  0  0  0  0  0  0  0
    0.5244   -4.0932   -1.0019 C   0  0  0  0  0  0  0  0  0  0  0  0
   -2.9521    2.7273    2.8729 H   0  0  0  0  0  0  0  0  0  0  0  0
   -2.3900    1.2406    3.7595 H   0  0  0  0  0  0  0  0  0  0  0  0
   -1.2420    2.5934    3.4652 H   0  0  0  0  0  0  0  0  0  0  0  0
   -0.2026   -4.2382    2.8598 H   0  0  0  0  0  0  0  0  0  0  0  0
   -0.5550   -2.7582    3.8260 H   0  0  0  0  0  0  0  0  0  0  0  0
   -1.9283   -3.7433    3.1599 H   0  0  0  0  0  0  0  0  0  0  0  0
   -4.2796    2.2371   -1.8340 H   0  0  0  0  0  0  0  0  0  0  0  0
   -6.7067    1.7618   -1.4964 H   0  0  0  0  0  0  0  0  0  0  0  0
   -7.4228   -0.1711   -0.0715 H   0  0  0  0  0  0  0  0  0  0  0  0
   -5.6988   -1.6276    1.0204 H   0  0  0  0  0  0  0  0  0  0  0  0
   -3.2679   -1.1593    0.6844 H   0  0  0  0  0  0  0  0  0  0  0  0
    0.4580   -0.6960   -3.2113 H   0  0  0  0  0  0  0  0  0  0  0  0
    1.9211   -1.6061   -2.7037 H   0  0  0  0  0  0  0  0  0  0  0  0
    0.7190   -2.3774   -3.7962 H   0  0  0  0  0  0  0  0  0  0  0  0
   -2.0104   -3.4124   -2.6819 H   0  0  0  0  0  0  0  0  0  0  0  0
   -2.5265   -2.9528   -1.0271 H   0  0  0  0  0  0  0  0  0  0  0  0
   -2.4147   -1.7062   -2.3191 H   0  0  0  0  0  0  0  0  0  0  0  0
    0.4857   -4.7355   -1.9062 H   0  0  0  0  0  0  0  0  0  0  0  0
    1.5615   -4.0932   -0.6199 H   0  0  0  0  0  0  0  0  0  0  0  0
   -0.1188   -4.5612   -0.2291 H   0  0  0  0  0  0  0  0  0  0  0  0
  1 15  1  0  0  0  0
  1 11  1  0  0  0  0
  2 23  1  0  0  0  0
  2 12  1  0  0  0  0
  3  1  1  0  0  0  0
  4  1  1  0  0  0  0
  5  9  1  0  0  0  0
  8 14  1  0  0  0  0
  9 26  1  0  0  0  0
  9 25  1  0  0  0  0
 10  5  1  0  0  0  0
 10  6  2  0  0  0  0
 11 10  1  1  0  0  0
 12 11  1  0  0  0  0
 12 13  1  1  0  0  0
 13  8  1  0  0  0  0
 13  7  2  0  0  0  0
 14 29  1  0  0  0  0
 14 28  1  0  0  0  0
 15 20  1  0  0  0  0
 16 17  1  0  0  0  0
 16 15  2  0  0  0  0
 17 18  2  0  0  0  0
 18 32  1  0  0  0  0
 18 19  1  0  0  0  0
 19 33  1  0  0  0  0
 20 19  2  0  0  0  0
 20 34  1  0  0  0  0
 21 36  1  0  0  0  0
 21  2  1  0  0  0  0
 22  2  1  0  0  0  0
 22 39  1  0  0  0  0
 23 42  1  0  0  0  0
 23 43  1  0  0  0  0
 24  9  1  0  0  0  0
 27 14  1  0  0  0  0
 30 16  1  0  0  0  0
 31 17  1  0  0  0  0
 35 21  1  0  0  0  0
 37 21  1  0  0  0  0
 38 22  1  0  0  0  0
 40 22  1  0  0  0  0
 41 23  1  0  0  0  0
M  END
