7
 OpenBabel05122313113D

 18 18  0  0  0  0  0  0  0  0999 V2000
   -1.5016   -0.1829    2.2318 O   0  0  0  0  0  1  0  0  0  0  0  0
    2.3058   -0.5244    0.6571 C   0  0  0  0  0  0  0  0  0  0  0  0
    3.2174    0.5150    0.9736 C   0  0  0  0  0  0  0  0  0  0  0  0
    2.9064    1.2960    1.6856 H   0  0  0  0  0  0  0  0  0  0  0  0
    0.9647   -0.5147    1.2518 C   0  0  0  0  0  3  0  0  0  0  0  0
    0.8372    0.2043    2.0806 H   0  0  0  0  0  0  0  0  0  0  0  0
    0.1030   -1.6598    1.3302 C   0  0  0  0  0  3  0  0  0  0  0  0
    0.3628   -2.6629    0.9561 H   0  0  0  0  0  0  0  0  0  0  0  0
    4.5021    0.5708    0.4202 C   0  0  0  0  0  0  0  0  0  0  0  0
    5.2058    1.3771    0.6725 H   0  0  0  0  0  0  0  0  0  0  0  0
    4.0378   -1.4880   -0.8010 C   0  0  0  0  0  0  0  0  0  0  0  0
    4.3838   -2.2659   -1.4969 H   0  0  0  0  0  0  0  0  0  0  0  0
    4.8992   -0.4356   -0.4690 C   0  0  0  0  0  0  0  0  0  0  0  0
    2.7541   -1.5249   -0.2423 C   0  0  0  0  0  0  0  0  0  0  0  0
    2.0839   -2.3537   -0.5102 H   0  0  0  0  0  0  0  0  0  0  0  0
    6.1349   -0.3934   -1.0092 F   0  0  0  0  0  0  0  0  0  0  0  0
   -1.1934   -1.3982    1.8817 C   0  0  0  0  0  3  0  0  0  0  0  0
   -1.9214   -2.2326    2.0308 H   0  0  0  0  0  0  0  0  0  0  0  0
  2  3  1  0  0  0  0
  2  5  1  0  0  0  0
  3  4  1  0  0  0  0
  5  7  1  0  0  0  0
  5  6  1  0  0  0  0
  7 17  1  0  0  0  0
  8  7  1  0  0  0  0
  9 10  1  0  0  0  0
  9  3  2  0  0  0  0
 11 13  2  0  0  0  0
 11 14  1  0  0  0  0
 12 11  1  0  0  0  0
 13  9  1  0  0  0  0
 14  2  2  0  0  0  0
 15 14  1  0  0  0  0
 16 13  1  0  0  0  0
 17 18  1  0  0  0  0
 17  1  1  0  0  0  0
M  END
