12
 OpenBabel05122313113D

 40 46  0  0  1  0  0  0  0  0999 V2000
    1.7422    0.6116    0.0366 C   0  0  1  0  0  0  0  0  0  0  0  0
    0.5522   -0.6584   -0.0365 C   0  0  1  0  0  0  0  0  0  0  0  0
    1.1566    2.0648    0.0665 C   0  0  0  0  0  0  0  0  0  0  0  0
    1.5579    2.8008    1.3605 C   0  0  0  0  0  0  0  0  0  0  0  0
    1.0422    3.7801    1.3987 H   0  0  0  0  0  0  0  0  0  0  0  0
    2.6487    2.9809    1.3849 H   0  0  0  0  0  0  0  0  0  0  0  0
    1.2895    2.2299    2.2675 H   0  0  0  0  0  0  0  0  0  0  0  0
    1.6794    2.9022   -1.1189 C   0  0  0  0  0  0  0  0  0  0  0  0
    1.1554    3.8778   -1.1336 H   0  0  0  0  0  0  0  0  0  0  0  0
    1.5107    2.4033   -2.0901 H   0  0  0  0  0  0  0  0  0  0  0  0
    2.7644    3.0907   -1.0177 H   0  0  0  0  0  0  0  0  0  0  0  0
   -0.3786    1.9804   -0.0191 C   0  0  1  0  0  3  0  0  0  0  0  0
   -1.1611    1.8991   -1.2411 C   0  0  0  0  0  3  0  0  0  0  0  0
   -0.7790    1.9813   -2.2645 H   0  0  0  0  0  0  0  0  0  0  0  0
   -2.5583    1.7940   -0.8500 C   0  0  0  0  0  0  0  0  0  0  0  0
   -3.4109    1.7258   -1.5398 H   0  0  0  0  0  0  0  0  0  0  0  0
   -2.6455    1.8313    0.5748 C   0  0  0  0  0  0  0  0  0  0  0  0
   -3.5721    1.8087    1.1636 H   0  0  0  0  0  0  0  0  0  0  0  0
   -1.2931    1.9403    1.1065 C   0  0  0  0  0  3  0  0  0  0  0  0
   -1.0194    2.0496    2.1622 H   0  0  0  0  0  0  0  0  0  0  0  0
    1.5326   -0.2725   -1.4103 B   0  0  2  0  0  0  0  0  0  0  0  0
    1.0213    0.2453   -2.3697 H   0  0  0  0  0  0  0  0  0  0  0  0
    3.1553    0.1768   -0.8252 B   0  0  1  0  0  0  0  0  0  0  0  0
    3.7627    1.0425   -1.4029 H   0  0  0  0  0  0  0  0  0  0  0  0
    3.1082    0.1158    0.9434 B   0  0  2  0  0  0  0  0  0  0  0  0
    3.6813    0.9389    1.6118 H   0  0  0  0  0  0  0  0  0  0  0  0
    1.4580   -0.3714    1.4078 B   0  0  1  0  0  0  0  0  0  0  0  0
    0.8884    0.0766    2.3706 H   0  0  0  0  0  0  0  0  0  0  0  0
    1.2296   -1.9415   -0.9466 B   0  0  1  0  0  0  0  0  0  0  0  0
    0.4934   -2.6184   -1.6364 H   0  0  0  0  0  0  0  0  0  0  0  0
    2.8636   -1.4592   -1.4513 B   0  0  0  0  0  0  0  0  0  0  0  0
    3.3245   -1.8150   -2.5119 H   0  0  0  0  0  0  0  0  0  0  0  0
    3.8391   -1.2274    0.0295 B   0  0  1  0  0  0  0  0  0  0  0  0
    5.0342   -1.4144    0.0544 H   0  0  0  0  0  0  0  0  0  0  0  0
    2.7876   -1.5605    1.4364 B   0  0  0  0  0  0  0  0  0  0  0  0
    3.1917   -1.9914    2.4924 H   0  0  0  0  0  0  0  0  0  0  0  0
    1.1857   -2.0038    0.8098 B   0  0  2  0  0  0  0  0  0  0  0  0
    0.4205   -2.7376    1.4059 H   0  0  0  0  0  0  0  0  0  0  0  0
    2.6469   -2.5484   -0.0498 B   0  0  0  0  0  0  0  0  0  0  0  0
    2.9525   -3.7193   -0.0820 H   0  0  0  0  0  0  0  0  0  0  0  0
  1  3  1  1  0  0  0
  1 27  1  0  0  0  0
  2 37  1  0  0  0  0
  2 27  1  0  0  0  0
  3  4  1  0  0  0  0
  4  6  1  0  0  0  0
  4  5  1  0  0  0  0
  4  7  1  0  0  0  0
  8 11  1  0  0  0  0
  8  3  1  0  0  0  0
  9  8  1  0  0  0  0
 10  8  1  0  0  0  0
 12  3  1  0  0  0  0
 12 19  1  0  0  0  0
 13 15  1  0  0  0  0
 13 12  1  0  0  0  0
 14 13  1  0  0  0  0
 15 17  2  0  0  0  0
 16 15  1  0  0  0  0
 17 19  1  0  0  0  0
 17 18  1  0  0  0  0
 19 20  1  0  0  0  0
 21 22  1  6  0  0  0
 21 29  1  0  0  0  0
 21  2  1  0  0  0  0
 21  1  1  0  0  0  0
 23 24  1  6  0  0  0
 23  1  1  0  0  0  0
 23 25  1  0  0  0  0
 25 35  1  0  0  0  0
 25 26  1  1  0  0  0
 27 28  1  1  0  0  0
 29 30  1  6  0  0  0
 29  2  1  0  0  0  0
 29 37  1  0  0  0  0
 31 23  1  0  0  0  0
 31 39  1  0  0  0  0
 32 31  1  0  0  0  0
 33 34  1  1  0  0  0
 33 25  1  0  0  0  0
 33 35  1  0  0  0  0
 35 36  1  0  0  0  0
 37 38  1  1  0  0  0
 37 27  1  0  0  0  0
 39 33  1  0  0  0  0
 40 39  1  0  0  0  0
M  END
