4
 OpenBabel05122313113D

 22 22  0  0  1  0  0  0  0  0999 V2000
   -2.8276    3.1644   -1.0789 C   0  0  0  0  0  0  0  0  0  0  0  0
   -1.9611    2.2027   -1.4669 C   0  0  0  0  0  0  0  0  0  0  0  0
   -0.7022    1.8963   -0.7851 C   0  0  0  0  0  3  0  0  0  0  0  0
    0.2749    1.0182   -1.3486 C   0  0  0  0  0  3  0  0  0  0  0  0
    1.4583    0.6898   -0.5896 C   0  0  2  0  0  3  0  0  0  0  0  0
    2.1696    1.7682    0.2475 C   0  0  0  0  0  0  0  0  0  0  0  0
    3.6880    1.5767    0.2070 C   0  0  0  0  0  0  0  0  0  0  0  0
    4.0188    0.1106    0.4191 C   0  0  0  0  0  0  0  0  0  0  0  0
    2.2902   -0.4025   -1.2131 C   0  0  0  0  0  0  0  0  0  0  0  0
    3.4958   -0.6905   -0.6605 O   0  0  0  0  0  0  0  0  0  0  0  0
    1.9353   -1.0539   -2.1861 O   0  0  0  0  0  0  0  0  0  0  0  0
   -2.6304    3.7843   -0.1893 H   0  0  0  0  0  0  0  0  0  0  0  0
   -3.7616    3.3516   -1.6289 H   0  0  0  0  0  0  0  0  0  0  0  0
   -2.1979    1.5893   -2.3551 H   0  0  0  0  0  0  0  0  0  0  0  0
   -0.3732    2.6368   -0.0398 H   0  0  0  0  0  0  0  0  0  0  0  0
    0.1368    0.5548   -2.3393 H   0  0  0  0  0  0  0  0  0  0  0  0
    1.8362    1.7567    1.3031 H   0  0  0  0  0  0  0  0  0  0  0  0
    1.9025    2.7672   -0.1539 H   0  0  0  0  0  0  0  0  0  0  0  0
    4.1806    2.1932    0.9863 H   0  0  0  0  0  0  0  0  0  0  0  0
    4.1036    1.8956   -0.7734 H   0  0  0  0  0  0  0  0  0  0  0  0
    5.1097   -0.0799    0.4144 H   0  0  0  0  0  0  0  0  0  0  0  0
    3.6054   -0.2579    1.3822 H   0  0  0  0  0  0  0  0  0  0  0  0
  1 12  1  0  0  0  0
  2  1  2  0  0  0  0
  2  3  1  0  0  0  0
  3 15  1  0  0  0  0
  4  3  1  0  0  0  0
  5  4  1  6  0  0  0
  5  6  1  0  0  0  0
  6 17  1  0  0  0  0
  7  6  1  0  0  0  0
  7  8  1  0  0  0  0
  7 19  1  0  0  0  0
  8 22  1  0  0  0  0
  9 10  1  0  0  0  0
  9  5  1  0  0  0  0
 10  8  1  0  0  0  0
 11  9  2  0  0  0  0
 13  1  1  0  0  0  0
 14  2  1  0  0  0  0
 16  4  1  0  0  0  0
 18  6  1  0  0  0  0
 20  7  1  0  0  0  0
 21  8  1  0  0  0  0
M  END
