3
 OpenBabel05122313113D

 57 63  0  0  1  0  0  0  0  0999 V2000
   -0.0625    1.0956    0.4967 N   0  0  0  0  0  0  0  0  0  0  0  0
    1.1453   -0.4388   -0.4023 N   0  0  0  0  0  0  0  0  0  0  0  0
   -0.1062   -0.2097    0.0956 C   0  0  0  0  0  2  0  0  0  0  0  0
    1.1714    1.7008    0.2186 C   0  0  0  0  0  0  0  0  0  0  0  0
    1.9642    0.6972   -0.3358 C   0  0  0  0  0  0  0  0  0  0  0  0
   -1.1548    1.7813    1.1934 C   0  0  1  0  0  0  0  0  0  0  0  0
   -0.5172    2.8231    2.1375 C   0  0  0  0  0  0  0  0  0  0  0  0
    0.4368    3.7286    1.4010 C   0  0  0  0  0  0  0  0  0  0  0  0
    1.3114    3.1388    0.4459 C   0  0  0  0  0  0  0  0  0  0  0  0
    2.1900    3.9617   -0.2926 C   0  0  0  0  0  0  0  0  0  0  0  0
    2.2301    5.3421   -0.0622 C   0  0  0  0  0  0  0  0  0  0  0  0
    1.3811    5.9223    0.8946 C   0  0  0  0  0  0  0  0  0  0  0  0
    0.4830    5.1154    1.6093 C   0  0  0  0  0  0  0  0  0  0  0  0
    1.6869   -1.7314   -0.8429 C   0  0  1  0  0  0  0  0  0  0  0  0
    2.5438   -1.4284   -2.0816 C   0  0  0  0  0  0  0  0  0  0  0  0
    3.6432   -0.4519   -1.7268 C   0  0  0  0  0  0  0  0  0  0  0  0
    3.3405    0.6000   -0.8158 C   0  0  0  0  0  0  0  0  0  0  0  0
    4.3722    1.4670   -0.3930 C   0  0  0  0  0  0  0  0  0  0  0  0
    5.6682    1.3324   -0.9036 C   0  0  0  0  0  0  0  0  0  0  0  0
    5.9576    0.3210   -1.8343 C   0  0  0  0  0  0  0  0  0  0  0  0
    4.9484   -0.5706   -2.2278 C   0  0  0  0  0  0  0  0  0  0  0  0
   -2.1870    2.3774    0.2534 C   0  0  0  0  0  0  0  0  0  0  0  0
   -3.5257    2.4463    0.6857 C   0  0  0  0  0  0  0  0  0  0  0  0
   -4.5114    3.0279   -0.1248 C   0  0  0  0  0  0  0  0  0  0  0  0
   -4.1709    3.5403   -1.3871 C   0  0  0  0  0  0  0  0  0  0  0  0
   -2.8403    3.4697   -1.8282 C   0  0  0  0  0  0  0  0  0  0  0  0
   -1.8532    2.8954   -1.0121 C   0  0  0  0  0  0  0  0  0  0  0  0
    2.4217   -2.4474    0.2951 C   0  0  0  0  0  0  0  0  0  0  0  0
    1.8488   -2.4703    1.5831 C   0  0  0  0  0  0  0  0  0  0  0  0
    2.4746   -3.1635    2.6286 C   0  0  0  0  0  0  0  0  0  0  0  0
    3.6826   -3.8436    2.4092 C   0  0  0  0  0  0  0  0  0  0  0  0
    4.2580   -3.8276    1.1304 C   0  0  0  0  0  0  0  0  0  0  0  0
    3.6321   -3.1351    0.0818 C   0  0  0  0  0  0  0  0  0  0  0  0
   -1.6400    0.9949    1.8089 H   0  0  0  0  0  0  0  0  0  0  0  0
   -1.3171    3.4059    2.6322 H   0  0  0  0  0  0  0  0  0  0  0  0
    0.0245    2.2632    2.9320 H   0  0  0  0  0  0  0  0  0  0  0  0
    2.8259    3.5177   -1.0709 H   0  0  0  0  0  0  0  0  0  0  0  0
    2.9185    5.9716   -0.6457 H   0  0  0  0  0  0  0  0  0  0  0  0
    1.4071    7.0078    1.0729 H   0  0  0  0  0  0  0  0  0  0  0  0
   -0.2007    5.5682    2.3442 H   0  0  0  0  0  0  0  0  0  0  0  0
    0.7986   -2.3367   -1.1169 H   0  0  0  0  0  0  0  0  0  0  0  0
    2.9612   -2.3580   -2.5120 H   0  0  0  0  0  0  0  0  0  0  0  0
    1.8749   -0.9922   -2.8562 H   0  0  0  0  0  0  0  0  0  0  0  0
    4.1566    2.2377    0.3599 H   0  0  0  0  0  0  0  0  0  0  0  0
    6.4618    2.0138   -0.5621 H   0  0  0  0  0  0  0  0  0  0  0  0
    6.9756    0.2127   -2.2374 H   0  0  0  0  0  0  0  0  0  0  0  0
    5.1789   -1.3858   -2.9322 H   0  0  0  0  0  0  0  0  0  0  0  0
   -3.7961    2.0215    1.6655 H   0  0  0  0  0  0  0  0  0  0  0  0
   -5.5543    3.0674    0.2250 H   0  0  0  0  0  0  0  0  0  0  0  0
   -4.9438    3.9891   -2.0293 H   0  0  0  0  0  0  0  0  0  0  0  0
   -2.5659    3.8653   -2.8180 H   0  0  0  0  0  0  0  0  0  0  0  0
   -0.8142    2.8408   -1.3694 H   0  0  0  0  0  0  0  0  0  0  0  0
    0.8927   -1.9602    1.7845 H   0  0  0  0  0  0  0  0  0  0  0  0
    2.0012   -3.1694    3.6222 H   0  0  0  0  0  0  0  0  0  0  0  0
    4.1748   -4.3849    3.2317 H   0  0  0  0  0  0  0  0  0  0  0  0
    5.2068   -4.3532    0.9429 H   0  0  0  0  0  0  0  0  0  0  0  0
    4.1101   -3.1331   -0.9074 H   0  0  0  0  0  0  0  0  0  0  0  0
  1  6  1  0  0  0  0
  2  5  1  0  0  0  0
  2  3  1  0  0  0  0
  3  1  1  0  0  0  0
  4  9  1  0  0  0  0
  4  1  1  0  0  0  0
  5  4  2  0  0  0  0
  6 34  1  1  0  0  0
  6  7  1  0  0  0  0
  7 35  1  0  0  0  0
  7 36  1  0  0  0  0
  8 13  1  0  0  0  0
  8  7  1  0  0  0  0
  9  8  2  0  0  0  0
 10 11  2  0  0  0  0
 10  9  1  0  0  0  0
 11 12  1  0  0  0  0
 12 39  1  0  0  0  0
 12 13  2  0  0  0  0
 13 40  1  0  0  0  0
 14 41  1  6  0  0  0
 14  2  1  0  0  0  0
 14 28  1  0  0  0  0
 15 16  1  0  0  0  0
 15 14  1  0  0  0  0
 16 17  1  0  0  0  0
 17 18  2  0  0  0  0
 17  5  1  0  0  0  0
 18 44  1  0  0  0  0
 19 45  1  0  0  0  0
 19 18  1  0  0  0  0
 20 19  2  0  0  0  0
 21 20  1  0  0  0  0
 21 16  2  0  0  0  0
 22 23  1  0  0  0  0
 22  6  1  0  0  0  0
 23 48  1  0  0  0  0
 24 49  1  0  0  0  0
 24 23  2  0  0  0  0
 25 24  1  0  0  0  0
 26 25  2  0  0  0  0
 26 27  1  0  0  0  0
 27 22  2  0  0  0  0
 28 29  1  0  0  0  0
 29 53  1  0  0  0  0
 29 30  2  0  0  0  0
 30 54  1  0  0  0  0
 31 30  1  0  0  0  0
 31 55  1  0  0  0  0
 32 31  2  0  0  0  0
 33 28  2  0  0  0  0
 33 32  1  0  0  0  0
 37 10  1  0  0  0  0
 38 11  1  0  0  0  0
 42 15  1  0  0  0  0
 43 15  1  0  0  0  0
 46 20  1  0  0  0  0
 47 21  1  0  0  0  0
 50 25  1  0  0  0  0
 51 26  1  0  0  0  0
 52 27  1  0  0  0  0
 56 32  1  0  0  0  0
 57 33  1  0  0  0  0
M  END
