3
 OpenBabel05122313113D

 31 32  0  0  0  0  0  0  0  0999 V2000
   -1.0702   -0.0521    0.4129 P   0  0  0  0  0  0  0  0  0  0  0  0
    1.6793   -0.1991    2.9595 O   0  0  0  0  0  0  0  0  0  0  0  0
    0.8089   -0.0995    1.9684 C   0  0  0  0  0  3  0  0  0  0  0  0
   -0.5609   -0.1063    2.1237 C   0  0  0  0  0  0  0  0  0  0  0  0
   -1.9768    1.4991    0.0301 C   0  0  0  0  0  0  0  0  0  0  0  0
   -1.8488    2.6091    0.8887 C   0  0  0  0  0  0  0  0  0  0  0  0
   -2.4612    3.8276    0.5593 C   0  0  0  0  0  0  0  0  0  0  0  0
   -3.1983    3.9496   -0.6295 C   0  0  0  0  0  0  0  0  0  0  0  0
   -3.3306    2.8452   -1.4878 C   0  0  0  0  0  0  0  0  0  0  0  0
   -2.7267    1.6225   -1.1593 C   0  0  0  0  0  0  0  0  0  0  0  0
   -2.3201   -1.3463    0.0394 C   0  0  0  0  0  0  0  0  0  0  0  0
   -1.9791   -2.5251   -0.6527 C   0  0  0  0  0  0  0  0  0  0  0  0
   -2.9606   -3.4968   -0.9030 C   0  0  0  0  0  0  0  0  0  0  0  0
   -4.2782   -3.3056   -0.4589 C   0  0  0  0  0  0  0  0  0  0  0  0
   -4.6190   -2.1361    0.2405 C   0  0  0  0  0  0  0  0  0  0  0  0
   -3.6469   -1.1561    0.4859 C   0  0  0  0  0  0  0  0  0  0  0  0
   -1.3767   -0.3604    3.3531 C   0  0  0  0  0  0  0  0  0  0  0  0
    2.5817   -0.2665    2.5244 H   0  0  0  0  0  0  0  0  0  0  0  0
   -1.2595    2.5118    1.8130 H   0  0  0  0  0  0  0  0  0  0  0  0
   -2.3598    4.6884    1.2375 H   0  0  0  0  0  0  0  0  0  0  0  0
   -3.6758    4.9072   -0.8866 H   0  0  0  0  0  0  0  0  0  0  0  0
   -3.9139    2.9345   -2.4169 H   0  0  0  0  0  0  0  0  0  0  0  0
   -2.8542    0.7530   -1.8231 H   0  0  0  0  0  0  0  0  0  0  0  0
   -0.9329   -2.6923   -0.9499 H   0  0  0  0  0  0  0  0  0  0  0  0
   -2.6881   -4.4160   -1.4435 H   0  0  0  0  0  0  0  0  0  0  0  0
   -5.0435   -4.0721   -0.6549 H   0  0  0  0  0  0  0  0  0  0  0  0
   -5.6498   -1.9834    0.5949 H   0  0  0  0  0  0  0  0  0  0  0  0
   -3.9221   -0.2327    1.0188 H   0  0  0  0  0  0  0  0  0  0  0  0
   -1.9655   -1.2986    3.2633 H   0  0  0  0  0  0  0  0  0  0  0  0
   -2.0991    0.4606    3.5523 H   0  0  0  0  0  0  0  0  0  0  0  0
   -0.7113   -0.4563    4.2330 H   0  0  0  0  0  0  0  0  0  0  0  0
  1  4  1  0  0  0  0
  3  4  2  0  0  0  0
  3  2  1  0  0  0  0
  4 17  1  0  0  0  0
  5  1  1  0  0  0  0
  5  6  1  0  0  0  0
  6 19  1  0  0  0  0
  7  6  2  0  0  0  0
  7 20  1  0  0  0  0
  8  7  1  0  0  0  0
  9 10  1  0  0  0  0
  9  8  2  0  0  0  0
 10  5  2  0  0  0  0
 11  1  1  0  0  0  0
 11 16  1  0  0  0  0
 12 11  2  0  0  0  0
 13 12  1  0  0  0  0
 13 14  2  0  0  0  0
 14 15  1  0  0  0  0
 15 16  2  0  0  0  0
 15 27  1  0  0  0  0
 16 28  1  0  0  0  0
 17 30  1  0  0  0  0
 17 31  1  0  0  0  0
 18  2  1  0  0  0  0
 21  8  1  0  0  0  0
 22  9  1  0  0  0  0
 23 10  1  0  0  0  0
 24 12  1  0  0  0  0
 25 13  1  0  0  0  0
 26 14  1  0  0  0  0
 29 17  1  0  0  0  0
M  END
