9
 OpenBabel05122313113D

 38 37  0  0  1  0  0  0  0  0999 V2000
   -0.2478   -0.8965    0.7161 P   0  0  0  0  0  2  0  0  0  0  0  0
    0.3154    2.0515   -1.9352 O   0  0  0  0  0  0  0  0  0  0  0  0
   -1.6283    3.7216    0.3866 O   0  0  0  0  0  0  0  0  0  0  0  0
   -2.8337    2.7016   -1.2515 O   0  0  0  0  0  0  0  0  0  0  0  0
   -3.7258    1.1945    1.2108 O   0  0  0  0  0  0  0  0  0  0  0  0
   -3.2176   -0.9975    1.5077 O   0  0  0  0  0  0  0  0  0  0  0  0
   -0.1997   -3.4962   -0.1132 N   0  0  0  0  0  0  0  0  0  0  0  0
   -1.9550   -2.2984   -1.0549 N   0  0  0  0  0  0  0  0  0  0  0  0
    0.1896    1.3412   -0.9397 C   0  0  0  0  0  3  0  0  0  0  0  0
   -1.1412    1.4559   -0.1761 C   0  0  2  0  0  3  0  0  0  0  0  0
   -1.5779    0.3538    0.4976 C   0  0  2  0  0  3  0  0  0  0  0  0
   -1.8932    2.7403   -0.2878 C   0  0  0  0  0  0  0  0  0  0  0  0
   -3.6060    3.9001   -1.3964 C   0  0  0  0  0  0  0  0  0  0  0  0
   -2.9319    0.2734    1.0947 C   0  0  0  0  0  0  0  0  0  0  0  0
   -4.5044   -1.1614    2.1076 C   0  0  0  0  0  0  0  0  0  0  0  0
   -0.8522   -2.2997   -0.2446 C   0  0  0  0  0  3  0  0  0  0  0  0
    0.7959   -3.6987    0.9259 C   0  0  0  0  0  0  0  0  0  0  0  0
   -0.1379   -4.4426   -1.2225 C   0  0  0  0  0  0  0  0  0  0  0  0
   -2.9396   -3.3688   -1.0039 C   0  0  0  0  0  0  0  0  0  0  0  0
   -2.2712   -1.1945   -1.9505 C   0  0  0  0  0  0  0  0  0  0  0  0
   -4.2434    3.7498   -2.2858 H   0  0  0  0  0  0  0  0  0  0  0  0
   -2.9473    4.7808   -1.5322 H   0  0  0  0  0  0  0  0  0  0  0  0
   -4.2328    4.0602   -0.4957 H   0  0  0  0  0  0  0  0  0  0  0  0
   -4.5846   -2.2299    2.3775 H   0  0  0  0  0  0  0  0  0  0  0  0
   -5.3126   -0.8768    1.4028 H   0  0  0  0  0  0  0  0  0  0  0  0
   -4.6039   -0.5270    3.0118 H   0  0  0  0  0  0  0  0  0  0  0  0
    1.7896   -3.3088    0.6122 H   0  0  0  0  0  0  0  0  0  0  0  0
    0.8815   -4.7816    1.1464 H   0  0  0  0  0  0  0  0  0  0  0  0
    0.4928   -3.1514    1.8397 H   0  0  0  0  0  0  0  0  0  0  0  0
   -0.6710   -5.3919   -0.9982 H   0  0  0  0  0  0  0  0  0  0  0  0
    0.9242   -4.6764   -1.4410 H   0  0  0  0  0  0  0  0  0  0  0  0
   -0.5725   -3.9844   -2.1277 H   0  0  0  0  0  0  0  0  0  0  0  0
   -2.9821   -3.9618   -1.9446 H   0  0  0  0  0  0  0  0  0  0  0  0
   -3.9446   -2.9261   -0.8306 H   0  0  0  0  0  0  0  0  0  0  0  0
   -2.7125   -4.0475   -0.1623 H   0  0  0  0  0  0  0  0  0  0  0  0
   -3.1240   -0.5773   -1.5948 H   0  0  0  0  0  0  0  0  0  0  0  0
   -2.5383   -1.6139   -2.9447 H   0  0  0  0  0  0  0  0  0  0  0  0
   -1.3914   -0.5428   -2.0790 H   0  0  0  0  0  0  0  0  0  0  0  0
  2  9  2  0  0  0  0
  4 12  1  0  0  0  0
  6 15  1  0  0  0  0
  7 17  1  0  0  0  0
  8 19  1  0  0  0  0
  8 16  1  0  0  0  0
 10  9  1  6  0  0  0
 10 11  1  0  0  0  0
 11  1  1  1  0  0  0
 11 14  1  0  0  0  0
 12 10  1  0  0  0  0
 12  3  2  0  0  0  0
 13  4  1  0  0  0  0
 13 23  1  0  0  0  0
 14  5  2  0  0  0  0
 14  6  1  0  0  0  0
 15 24  1  0  0  0  0
 15 26  1  0  0  0  0
 16  7  1  0  0  0  0
 16  1  1  0  0  0  0
 17 28  1  0  0  0  0
 17 29  1  0  0  0  0
 18 30  1  0  0  0  0
 18  7  1  0  0  0  0
 19 34  1  0  0  0  0
 19 35  1  0  0  0  0
 20 36  1  0  0  0  0
 20  8  1  0  0  0  0
 21 13  1  0  0  0  0
 22 13  1  0  0  0  0
 25 15  1  0  0  0  0
 27 17  1  0  0  0  0
 31 18  1  0  0  0  0
 32 18  1  0  0  0  0
 33 19  1  0  0  0  0
 37 20  1  0  0  0  0
 38 20  1  0  0  0  0
M  END
