1
 OpenBabel05122313113D

 57 59  0  0  0  0  0  0  0  0999 V2000
    1.1244   -0.1651   -0.3673 C   0  0  0  0  0  2  0  0  0  0  0  0
    1.5647    0.6182    0.5501 N   0  0  0  0  0  2  0  0  0  0  0  0
    1.2324    1.8262    1.2849 C   0  0  0  0  0  0  0  0  0  0  0  0
    0.1288    1.9653    1.2525 H   0  0  0  0  0  0  0  0  0  0  0  0
    1.8937    3.0423    0.6258 C   0  0  0  0  0  0  0  0  0  0  0  0
    2.9955    2.9191    0.6280 H   0  0  0  0  0  0  0  0  0  0  0  0
    1.6329    3.9689    1.1756 H   0  0  0  0  0  0  0  0  0  0  0  0
    1.5712    3.1577   -0.4265 H   0  0  0  0  0  0  0  0  0  0  0  0
    1.6598    1.6757    2.7479 C   0  0  0  0  0  0  0  0  0  0  0  0
    1.1601    0.8082    3.2191 H   0  0  0  0  0  0  0  0  0  0  0  0
    1.4030    2.5855    3.3263 H   0  0  0  0  0  0  0  0  0  0  0  0
    2.7573    1.5236    2.8062 H   0  0  0  0  0  0  0  0  0  0  0  0
   -0.1019   -0.5382   -0.8089 N   0  0  0  0  0  0  0  0  0  0  0  0
   -0.2036   -1.4813   -1.9645 C   0  0  0  0  0  0  0  0  0  0  0  0
   -1.2723   -1.4557   -2.2592 H   0  0  0  0  0  0  0  0  0  0  0  0
    0.6218   -1.0277   -3.1688 C   0  0  0  0  0  0  0  0  0  0  0  0
    0.3898    0.0211   -3.4408 H   0  0  0  0  0  0  0  0  0  0  0  0
    0.3935   -1.6717   -4.0417 H   0  0  0  0  0  0  0  0  0  0  0  0
    1.7044   -1.0881   -2.9488 H   0  0  0  0  0  0  0  0  0  0  0  0
    0.1235   -2.9120   -1.5308 C   0  0  0  0  0  0  0  0  0  0  0  0
    1.1702   -2.9730   -1.1759 H   0  0  0  0  0  0  0  0  0  0  0  0
   -0.0001   -3.6160   -2.3782 H   0  0  0  0  0  0  0  0  0  0  0  0
   -0.5487   -3.2423   -0.7131 H   0  0  0  0  0  0  0  0  0  0  0  0
   -1.6035   -0.0151    0.0473 Si  0  0  0  0  0  0  0  0  0  0  0  0
   -3.0312   -1.1267   -0.4914 C   0  0  0  0  0  0  0  0  0  0  0  0
   -3.2947   -2.3466    0.1721 C   0  0  0  0  0  0  0  0  0  0  0  0
   -2.6807   -2.6407    1.0385 H   0  0  0  0  0  0  0  0  0  0  0  0
   -4.3380   -3.1851   -0.2491 C   0  0  0  0  0  0  0  0  0  0  0  0
   -4.5289   -4.1317    0.2793 H   0  0  0  0  0  0  0  0  0  0  0  0
   -5.1422   -2.8128   -1.3384 C   0  0  0  0  0  0  0  0  0  0  0  0
   -5.9626   -3.4688   -1.6678 H   0  0  0  0  0  0  0  0  0  0  0  0
   -4.9033   -1.5983   -2.0016 C   0  0  0  0  0  0  0  0  0  0  0  0
   -5.5367   -1.2995   -2.8509 H   0  0  0  0  0  0  0  0  0  0  0  0
   -3.8582   -0.7626   -1.5794 C   0  0  0  0  0  0  0  0  0  0  0  0
   -3.6816    0.1913   -2.1022 H   0  0  0  0  0  0  0  0  0  0  0  0
   -1.2972   -0.2616    1.8923 C   0  0  0  0  0  0  0  0  0  0  0  0
   -0.5098   -1.3545    2.3221 C   0  0  0  0  0  0  0  0  0  0  0  0
   -0.0258   -2.0037    1.5753 H   0  0  0  0  0  0  0  0  0  0  0  0
   -0.3156   -1.6113    3.6880 C   0  0  0  0  0  0  0  0  0  0  0  0
    0.3045   -2.4646    4.0031 H   0  0  0  0  0  0  0  0  0  0  0  0
   -0.8998   -0.7718    4.6502 C   0  0  0  0  0  0  0  0  0  0  0  0
   -0.7435   -0.9680    5.7220 H   0  0  0  0  0  0  0  0  0  0  0  0
   -1.6737    0.3258    4.2406 C   0  0  0  0  0  0  0  0  0  0  0  0
   -2.1239    0.9936    4.9909 H   0  0  0  0  0  0  0  0  0  0  0  0
   -1.8700    0.5765    2.8735 C   0  0  0  0  0  0  0  0  0  0  0  0
   -2.4676    1.4502    2.5686 H   0  0  0  0  0  0  0  0  0  0  0  0
   -1.9918    1.7602   -0.4500 C   0  0  0  0  0  0  0  0  0  0  0  0
   -3.1729    2.3993   -0.0038 C   0  0  0  0  0  0  0  0  0  0  0  0
   -3.8867    1.8542    0.6356 H   0  0  0  0  0  0  0  0  0  0  0  0
   -3.4650    3.7187   -0.3810 C   0  0  0  0  0  0  0  0  0  0  0  0
   -4.3873    4.2014   -0.0226 H   0  0  0  0  0  0  0  0  0  0  0  0
   -2.5845    4.4199   -1.2215 C   0  0  0  0  0  0  0  0  0  0  0  0
   -2.8133    5.4549   -1.5185 H   0  0  0  0  0  0  0  0  0  0  0  0
   -1.4180    3.7949   -1.6893 C   0  0  0  0  0  0  0  0  0  0  0  0
   -0.7289    4.3359   -2.3556 H   0  0  0  0  0  0  0  0  0  0  0  0
   -1.1266    2.4760   -1.3077 C   0  0  0  0  0  0  0  0  0  0  0  0
   -0.2103    1.9933   -1.6827 H   0  0  0  0  0  0  0  0  0  0  0  0
  1  2  1  0  0  0  0
  2  3  1  0  0  0  0
  3  9  1  0  0  0  0
  4  3  1  0  0  0  0
  5  6  1  0  0  0  0
  5  7  1  0  0  0  0
  5  3  1  0  0  0  0
  8  5  1  0  0  0  0
  9 12  1  0  0  0  0
  9 10  1  0  0  0  0
  9 11  1  0  0  0  0
 13  1  1  0  0  0  0
 13 24  1  0  0  0  0
 14 20  1  0  0  0  0
 14 13  1  0  0  0  0
 15 14  1  0  0  0  0
 16 19  1  0  0  0  0
 16 14  1  0  0  0  0
 17 16  1  0  0  0  0
 18 16  1  0  0  0  0
 20 21  1  0  0  0  0
 20 23  1  0  0  0  0
 22 20  1  0  0  0  0
 24 36  1  0  0  0  0
 25 24  1  0  0  0  0
 25 26  1  0  0  0  0
 26 27  1  0  0  0  0
 28 26  2  0  0  0  0
 28 29  1  0  0  0  0
 30 28  1  0  0  0  0
 31 30  1  0  0  0  0
 32 34  1  0  0  0  0
 32 30  2  0  0  0  0
 33 32  1  0  0  0  0
 34 25  2  0  0  0  0
 35 34  1  0  0  0  0
 36 37  2  0  0  0  0
 36 45  1  0  0  0  0
 37 39  1  0  0  0  0
 38 37  1  0  0  0  0
 39 40  1  0  0  0  0
 39 41  2  0  0  0  0
 41 42  1  0  0  0  0
 43 41  1  0  0  0  0
 43 44  1  0  0  0  0
 45 43  2  0  0  0  0
 46 45  1  0  0  0  0
 47 48  1  0  0  0  0
 47 24  1  0  0  0  0
 48 49  1  0  0  0  0
 50 51  1  0  0  0  0
 50 48  2  0  0  0  0
 52 50  1  0  0  0  0
 53 52  1  0  0  0  0
 54 56  1  0  0  0  0
 54 52  2  0  0  0  0
 55 54  1  0  0  0  0
 56 47  2  0  0  0  0
 57 56  1  0  0  0  0
M  END
