2
 OpenBabel05122313113D

 23 22  0  0  1  0  0  0  0  0999 V2000
   -1.7729    3.7205   -0.2083 O   0  0  0  0  0  0  0  0  0  0  0  0
   -0.3972    1.8695   -0.6926 C   0  0  0  0  0  3  0  0  0  0  0  0
    0.4618    2.5262   -0.4530 H   0  0  0  0  0  0  0  0  0  0  0  0
   -3.0967    4.1765   -0.0645 C   0  0  0  0  0  0  0  0  0  0  0  0
   -3.1238    5.2311   -0.4036 H   0  0  0  0  0  0  0  0  0  0  0  0
   -3.4564    4.1438    0.9922 H   0  0  0  0  0  0  0  0  0  0  0  0
   -3.8135    3.5845   -0.6842 H   0  0  0  0  0  0  0  0  0  0  0  0
   -1.5805    2.3458    0.1653 C   0  0  1  0  0  0  0  0  0  0  0  0
   -2.4890    1.7621   -0.1117 H   0  0  0  0  0  0  0  0  0  0  0  0
   -1.3749    2.2237    1.6847 C   0  0  0  0  0  0  0  0  0  0  0  0
   -2.2681    2.6603    2.1845 H   0  0  0  0  0  0  0  0  0  0  0  0
   -1.3872    1.1476    1.9608 H   0  0  0  0  0  0  0  0  0  0  0  0
   -0.1146    2.9085    2.2203 C   0  0  0  0  0  0  0  0  0  0  0  0
   -0.0928    3.9525    1.8405 H   0  0  0  0  0  0  0  0  0  0  0  0
    0.7880    2.4084    1.8047 H   0  0  0  0  0  0  0  0  0  0  0  0
   -0.6832    1.8970   -2.1884 C   0  0  0  0  0  0  0  0  0  0  0  0
    0.2280    1.6861   -2.7829 H   0  0  0  0  0  0  0  0  0  0  0  0
   -1.0493    2.9097   -2.4603 H   0  0  0  0  0  0  0  0  0  0  0  0
   -1.4530    1.1538   -2.4754 H   0  0  0  0  0  0  0  0  0  0  0  0
   -0.0351    2.8993    3.7470 C   0  0  0  0  0  0  0  0  0  0  0  0
    0.8848    3.3971    4.1153 H   0  0  0  0  0  0  0  0  0  0  0  0
   -0.0357    1.8621    4.1437 H   0  0  0  0  0  0  0  0  0  0  0  0
   -0.9032    3.4228    4.2003 H   0  0  0  0  0  0  0  0  0  0  0  0
  1  4  1  0  0  0  0
  1  8  1  0  0  0  0
  2  3  1  0  0  0  0
  2  8  1  0  0  0  0
  4  6  1  0  0  0  0
  5  4  1  0  0  0  0
  7  4  1  0  0  0  0
  8  9  1  6  0  0  0
  8 10  1  0  0  0  0
 10 12  1  0  0  0  0
 10 11  1  0  0  0  0
 10 13  1  0  0  0  0
 13 20  1  0  0  0  0
 14 13  1  0  0  0  0
 15 13  1  0  0  0  0
 16  2  1  0  0  0  0
 17 16  1  0  0  0  0
 18 16  1  0  0  0  0
 19 16  1  0  0  0  0
 20 21  1  0  0  0  0
 20 22  1  0  0  0  0
 20 23  1  0  0  0  0
M  END
