39
 OpenBabel05122313113D

 52 56  0  0  0  0  0  0  0  0999 V2000
   -0.0147    0.6051   -0.3878 N   0  0  0  0  0  0  0  0  0  0  0  0
   -1.8570    1.1634    0.6508 N   0  0  0  0  0  0  0  0  0  0  0  0
    3.4586    0.1936   -0.9966 C   0  0  0  0  0  0  0  0  0  0  0  0
    3.5020    1.0416   -2.1568 C   0  0  0  0  0  0  0  0  0  0  0  0
    2.5854    1.2342   -2.7308 H   0  0  0  0  0  0  0  0  0  0  0  0
    4.6774    1.6299   -2.5853 C   0  0  0  0  0  0  0  0  0  0  0  0
    4.6687    2.2701   -3.4804 H   0  0  0  0  0  0  0  0  0  0  0  0
    5.9014    1.4122   -1.8863 C   0  0  0  0  0  0  0  0  0  0  0  0
    6.8281    1.8865   -2.2420 H   0  0  0  0  0  0  0  0  0  0  0  0
    5.9123    0.6035   -0.7690 C   0  0  0  0  0  0  0  0  0  0  0  0
    6.8476    0.4212   -0.2172 H   0  0  0  0  0  0  0  0  0  0  0  0
    4.7144   -0.0226   -0.2915 C   0  0  0  0  0  0  0  0  0  0  0  0
    4.7348   -0.8354    0.8541 C   0  0  0  0  0  0  0  0  0  0  0  0
    5.6874   -0.9856    1.3867 H   0  0  0  0  0  0  0  0  0  0  0  0
    3.5754   -1.4682    1.3335 C   0  0  0  0  0  0  0  0  0  0  0  0
    3.6160   -2.3136    2.4898 C   0  0  0  0  0  0  0  0  0  0  0  0
    4.5804   -2.4467    3.0043 H   0  0  0  0  0  0  0  0  0  0  0  0
    2.4804   -2.9540    2.9428 C   0  0  0  0  0  0  0  0  0  0  0  0
    2.5246   -3.6049    3.8289 H   0  0  0  0  0  0  0  0  0  0  0  0
    1.2460   -2.7811    2.2500 C   0  0  0  0  0  0  0  0  0  0  0  0
    0.3448   -3.3088    2.5970 H   0  0  0  0  0  0  0  0  0  0  0  0
    1.1653   -1.9639    1.1380 C   0  0  0  0  0  0  0  0  0  0  0  0
    0.1940   -1.8658    0.6325 H   0  0  0  0  0  0  0  0  0  0  0  0
    2.3158   -1.2681    0.6367 C   0  0  0  0  0  0  0  0  0  0  0  0
    2.2698   -0.4193   -0.5063 C   0  0  0  0  0  0  0  0  0  0  0  0
    0.9377   -0.1791   -1.1880 C   0  0  0  0  0  0  0  0  0  0  0  0
    1.0665    0.3315   -2.1595 H   0  0  0  0  0  0  0  0  0  0  0  0
    0.4179   -1.1344   -1.4066 H   0  0  0  0  0  0  0  0  0  0  0  0
    0.2158    1.8749    0.1504 C   0  0  0  0  0  0  0  0  0  0  0  0
    1.3193    2.7429    0.1241 C   0  0  0  0  0  0  0  0  0  0  0  0
    2.2523    2.4756   -0.3872 H   0  0  0  0  0  0  0  0  0  0  0  0
    1.1798    3.9735    0.7817 C   0  0  0  0  0  0  0  0  0  0  0  0
    2.0254    4.6767    0.7796 H   0  0  0  0  0  0  0  0  0  0  0  0
   -0.0154    4.3311    1.4452 C   0  0  0  0  0  0  0  0  0  0  0  0
   -0.0825    5.3071    1.9480 H   0  0  0  0  0  0  0  0  0  0  0  0
   -1.1195    3.4681    1.4730 C   0  0  0  0  0  0  0  0  0  0  0  0
   -2.0522    3.7477    1.9823 H   0  0  0  0  0  0  0  0  0  0  0  0
   -0.9825    2.2362    0.8165 C   0  0  0  0  0  0  0  0  0  0  0  0
   -1.2797    0.1732   -0.0915 C   0  0  0  0  0  2  0  0  0  0  0  0
   -3.2393    1.1225    1.1193 C   0  0  0  0  0  0  0  0  0  0  0  0
   -3.2853    1.6500    2.0945 H   0  0  0  0  0  0  0  0  0  0  0  0
   -3.4830    0.0570    1.3074 H   0  0  0  0  0  0  0  0  0  0  0  0
   -4.2245    1.7239    0.1152 C   0  0  0  0  0  0  0  0  0  0  0  0
   -3.9447    2.7804   -0.0922 H   0  0  0  0  0  0  0  0  0  0  0  0
   -4.1169    1.1741   -0.8455 H   0  0  0  0  0  0  0  0  0  0  0  0
   -5.6749    1.6474    0.5987 C   0  0  0  0  0  0  0  0  0  0  0  0
   -5.7675    2.1760    1.5740 H   0  0  0  0  0  0  0  0  0  0  0  0
   -5.9315    0.5849    0.8044 H   0  0  0  0  0  0  0  0  0  0  0  0
   -6.6703    2.2326   -0.4033 C   0  0  0  0  0  0  0  0  0  0  0  0
   -6.4580    3.3031   -0.6061 H   0  0  0  0  0  0  0  0  0  0  0  0
   -7.7115    2.1620   -0.0309 H   0  0  0  0  0  0  0  0  0  0  0  0
   -6.6244    1.6957   -1.3732 H   0  0  0  0  0  0  0  0  0  0  0  0
  1 39  1  0  0  0  0
  1 29  1  0  0  0  0
  2 38  1  0  0  0  0
  2 40  1  0  0  0  0
  3 25  2  0  0  0  0
  3 12  1  0  0  0  0
  4  3  1  0  0  0  0
  5  4  1  0  0  0  0
  6  4  2  0  0  0  0
  6  8  1  0  0  0  0
  7  6  1  0  0  0  0
  8 10  2  0  0  0  0
  9  8  1  0  0  0  0
 10 12  1  0  0  0  0
 10 11  1  0  0  0  0
 12 13  2  0  0  0  0
 13 15  1  0  0  0  0
 13 14  1  0  0  0  0
 15 16  1  0  0  0  0
 16 18  2  0  0  0  0
 16 17  1  0  0  0  0
 18 19  1  0  0  0  0
 20 21  1  0  0  0  0
 20 18  1  0  0  0  0
 22 20  2  0  0  0  0
 23 22  1  0  0  0  0
 24 22  1  0  0  0  0
 24 15  2  0  0  0  0
 25 24  1  0  0  0  0
 26 25  1  0  0  0  0
 26  1  1  0  0  0  0
 27 26  1  0  0  0  0
 28 26  1  0  0  0  0
 29 38  1  0  0  0  0
 30 29  2  0  0  0  0
 30 32  1  0  0  0  0
 31 30  1  0  0  0  0
 32 34  2  0  0  0  0
 33 32  1  0  0  0  0
 34 36  1  0  0  0  0
 34 35  1  0  0  0  0
 36 37  1  0  0  0  0
 38 36  2  0  0  0  0
 39  2  1  0  0  0  0
 40 42  1  0  0  0  0
 40 41  1  0  0  0  0
 43 46  1  0  0  0  0
 43 40  1  0  0  0  0
 44 43  1  0  0  0  0
 45 43  1  0  0  0  0
 46 48  1  0  0  0  0
 46 47  1  0  0  0  0
 49 51  1  0  0  0  0
 49 46  1  0  0  0  0
 50 49  1  0  0  0  0
 52 49  1  0  0  0  0
M  END
