5
 OpenBabel05122313113D

 39 41  0  0  1  0  0  0  0  0999 V2000
    2.9227    0.0572   -1.6567 O   0  0  0  0  0  0  0  0  0  0  0  0
    1.9508    0.1151   -1.7556 H   0  0  0  0  0  0  0  0  0  0  0  0
    0.8899   -1.4857   -0.2002 N   0  0  0  0  0  0  0  0  0  0  0  0
   -1.0775   -1.1721   -1.0649 N   0  0  0  0  0  0  0  0  0  0  0  0
   -0.0366   -0.5094   -0.4710 C   0  0  0  0  0  2  0  0  0  0  0  0
   -0.8162   -2.5298   -1.1540 C   0  0  0  0  0  0  0  0  0  0  0  0
   -1.5374   -3.2383   -1.5716 H   0  0  0  0  0  0  0  0  0  0  0  0
    0.4313   -2.7280   -0.6208 C   0  0  0  0  0  0  0  0  0  0  0  0
    1.0179   -3.6434   -0.5109 H   0  0  0  0  0  0  0  0  0  0  0  0
    2.2260   -1.2023    0.3475 C   0  0  1  0  0  0  0  0  0  0  0  0
    2.1203   -0.2254    0.8668 H   0  0  0  0  0  0  0  0  0  0  0  0
    2.6729   -2.2744    1.3476 C   0  0  0  0  0  0  0  0  0  0  0  0
    1.9150   -2.3621    2.1532 H   0  0  0  0  0  0  0  0  0  0  0  0
    2.7214   -3.2636    0.8408 H   0  0  0  0  0  0  0  0  0  0  0  0
    4.0597   -1.9496    1.9147 C   0  0  0  0  0  0  0  0  0  0  0  0
    4.3689   -2.7440    2.6244 H   0  0  0  0  0  0  0  0  0  0  0  0
    4.0050   -1.0061    2.5009 H   0  0  0  0  0  0  0  0  0  0  0  0
    5.0871   -1.7917    0.7872 C   0  0  0  0  0  0  0  0  0  0  0  0
    5.2153   -2.7682    0.2680 H   0  0  0  0  0  0  0  0  0  0  0  0
    6.0814   -1.5281    1.2018 H   0  0  0  0  0  0  0  0  0  0  0  0
    4.6376   -0.7268   -0.2158 C   0  0  0  0  0  0  0  0  0  0  0  0
    4.5899    0.2701    0.2735 H   0  0  0  0  0  0  0  0  0  0  0  0
    5.3519   -0.6283   -1.0580 H   0  0  0  0  0  0  0  0  0  0  0  0
    3.2493   -1.0104   -0.7971 C   0  0  2  0  0  0  0  0  0  0  0  0
    3.2854   -1.9837   -1.3589 H   0  0  0  0  0  0  0  0  0  0  0  0
   -2.3423   -0.5377   -1.4552 C   0  0  0  0  0  0  0  0  0  0  0  0
   -2.6217   -0.9188   -2.4571 H   0  0  0  0  0  0  0  0  0  0  0  0
   -2.1228    0.5451   -1.5420 H   0  0  0  0  0  0  0  0  0  0  0  0
   -3.4487   -0.7910   -0.4534 C   0  0  0  0  0  0  0  0  0  0  0  0
   -4.5037   -1.6723   -0.7530 C   0  0  0  0  0  0  0  0  0  0  0  0
   -4.5403   -2.1631   -1.7393 H   0  0  0  0  0  0  0  0  0  0  0  0
   -5.5139   -1.9205    0.1899 C   0  0  0  0  0  0  0  0  0  0  0  0
   -6.3372   -2.6081   -0.0565 H   0  0  0  0  0  0  0  0  0  0  0  0
   -5.4732   -1.2891    1.4420 C   0  0  0  0  0  0  0  0  0  0  0  0
   -6.2650   -1.4808    2.1820 H   0  0  0  0  0  0  0  0  0  0  0  0
   -4.4231   -0.4063    1.7470 C   0  0  0  0  0  0  0  0  0  0  0  0
   -4.3920    0.0980    2.7246 H   0  0  0  0  0  0  0  0  0  0  0  0
   -3.4159   -0.1568    0.8052 C   0  0  0  0  0  0  0  0  0  0  0  0
   -2.5928    0.5385    1.0392 H   0  0  0  0  0  0  0  0  0  0  0  0
  1 24  1  0  0  0  0
  2  1  1  0  0  0  0
  3 10  1  0  0  0  0
  4  5  1  0  0  0  0
  5  3  1  0  0  0  0
  6  4  1  0  0  0  0
  6  8  2  0  0  0  0
  7  6  1  0  0  0  0
  8  9  1  0  0  0  0
  8  3  1  0  0  0  0
 10 11  1  1  0  0  0
 10 12  1  0  0  0  0
 12 15  1  0  0  0  0
 12 13  1  0  0  0  0
 14 12  1  0  0  0  0
 15 17  1  0  0  0  0
 15 16  1  0  0  0  0
 18 20  1  0  0  0  0
 18 15  1  0  0  0  0
 19 18  1  0  0  0  0
 21 22  1  0  0  0  0
 21 18  1  0  0  0  0
 23 21  1  0  0  0  0
 24 25  1  6  0  0  0
 24 21  1  0  0  0  0
 24 10  1  0  0  0  0
 26  4  1  0  0  0  0
 26 29  1  0  0  0  0
 27 26  1  0  0  0  0
 28 26  1  0  0  0  0
 29 38  1  0  0  0  0
 30 29  2  0  0  0  0
 30 32  1  0  0  0  0
 31 30  1  0  0  0  0
 32 34  2  0  0  0  0
 33 32  1  0  0  0  0
 34 36  1  0  0  0  0
 34 35  1  0  0  0  0
 36 37  1  0  0  0  0
 38 39  1  0  0  0  0
 38 36  2  0  0  0  0
M  END
