7
 OpenBabel05122313113D

  9  8  0  0  0  0  0  0  0  0999 V2000
    2.2258   -2.3482    0.3040 F   0  0  0  0  0  0  0  0  0  0  0  0
    3.3218   -1.2026   -1.1801 F   0  0  0  0  0  0  0  0  0  0  0  0
    3.5920   -0.7949    0.9552 F   0  0  0  0  0  0  0  0  0  0  0  0
    3.4204    1.4149   -0.5583 F   0  0  0  0  0  0  0  0  0  0  0  0
    2.2164    1.8793    1.1999 F   0  0  0  0  0  0  0  0  0  0  0  0
    1.4212    2.2132   -0.8068 F   0  0  0  0  0  0  0  0  0  0  0  0
    1.5739   -0.0511   -0.0465 C   0  0  0  0  0  0  0  0  0  0  0  0
    2.6636   -1.1028    0.0056 C   0  0  0  0  0  0  0  0  0  0  0  0
    2.1652    1.3475   -0.0563 C   0  0  0  0  0  0  0  0  0  0  0  0
  2  8  1  0  0  0  0
  4  9  1  0  0  0  0
  6  9  1  0  0  0  0
  7  8  1  0  0  0  0
  8  1  1  0  0  0  0
  8  3  1  0  0  0  0
  9  7  1  0  0  0  0
  9  5  1  0  0  0  0
M  END
