4
 OpenBabel05122313113D

 56 57  0  0  0  0  0  0  0  0999 V2000
   -2.9477   -0.1968   -0.6424 S   0  0  0  0  0  0  0  0  0  0  0  0
   -0.3090   -1.0760   -2.2423 N   0  0  0  0  0  0  0  0  0  0  0  0
    1.2286   -1.2806   -0.7269 N   0  0  0  0  0  0  0  0  0  0  0  0
    0.1418   -0.5114   -1.0765 C   0  0  0  0  0  2  0  0  0  0  0  0
    1.4057   -2.3259   -1.6334 C   0  0  0  0  0  0  0  0  0  0  0  0
    2.2193   -3.0483   -1.5251 H   0  0  0  0  0  0  0  0  0  0  0  0
    0.4361   -2.1955   -2.5912 C   0  0  0  0  0  0  0  0  0  0  0  0
    0.2321   -2.7855   -3.4898 H   0  0  0  0  0  0  0  0  0  0  0  0
   -1.4271   -0.5212   -2.9968 C   0  0  0  0  0  0  0  0  0  0  0  0
   -1.3946   -0.9378   -4.0232 H   0  0  0  0  0  0  0  0  0  0  0  0
   -1.2697    0.5732   -3.0696 H   0  0  0  0  0  0  0  0  0  0  0  0
   -2.7904   -0.8101   -2.3719 C   0  0  0  0  0  0  0  0  0  0  0  0
   -3.0122   -1.8939   -2.3757 H   0  0  0  0  0  0  0  0  0  0  0  0
   -3.5761   -0.3015   -2.9638 H   0  0  0  0  0  0  0  0  0  0  0  0
    2.2240   -0.9491    0.2719 C   0  0  0  0  0  0  0  0  0  0  0  0
    1.9663   -1.1991    1.6427 C   0  0  0  0  0  0  0  0  0  0  0  0
    2.9727   -0.8574    2.5636 C   0  0  0  0  0  0  0  0  0  0  0  0
    2.8067   -1.0340    3.6350 H   0  0  0  0  0  0  0  0  0  0  0  0
    4.1864   -0.3010    2.1391 C   0  0  0  0  0  0  0  0  0  0  0  0
    4.9617   -0.0486    2.8778 H   0  0  0  0  0  0  0  0  0  0  0  0
    4.4111   -0.0595    0.7807 C   0  0  0  0  0  0  0  0  0  0  0  0
    5.3617    0.3906    0.4591 H   0  0  0  0  0  0  0  0  0  0  0  0
    3.4326   -0.3655   -0.1856 C   0  0  0  0  0  0  0  0  0  0  0  0
   -3.3166   -1.7968    0.3170 C   0  0  0  0  0  0  0  0  0  0  0  0
   -4.7372   -2.2233   -0.0677 C   0  0  0  0  0  0  0  0  0  0  0  0
   -5.4744   -1.4262    0.1492 H   0  0  0  0  0  0  0  0  0  0  0  0
   -5.0175   -3.1230    0.5186 H   0  0  0  0  0  0  0  0  0  0  0  0
   -4.8193   -2.4944   -1.1393 H   0  0  0  0  0  0  0  0  0  0  0  0
   -3.2539   -1.3677    1.7863 C   0  0  0  0  0  0  0  0  0  0  0  0
   -3.9780   -0.5574    2.0052 H   0  0  0  0  0  0  0  0  0  0  0  0
   -2.2394   -1.0239    2.0673 H   0  0  0  0  0  0  0  0  0  0  0  0
   -3.5152   -2.2322    2.4297 H   0  0  0  0  0  0  0  0  0  0  0  0
   -2.2965   -2.8916    0.0110 C   0  0  0  0  0  0  0  0  0  0  0  0
   -1.2627   -2.5586    0.2103 H   0  0  0  0  0  0  0  0  0  0  0  0
   -2.3543   -3.2500   -1.0350 H   0  0  0  0  0  0  0  0  0  0  0  0
   -2.5046   -3.7680    0.6587 H   0  0  0  0  0  0  0  0  0  0  0  0
    0.6660   -1.8435    2.0993 C   0  0  0  0  0  0  0  0  0  0  0  0
   -0.1290   -1.4469    1.4282 H   0  0  0  0  0  0  0  0  0  0  0  0
    0.2634   -1.4791    3.5324 C   0  0  0  0  0  0  0  0  0  0  0  0
    0.9531   -1.9144    4.2831 H   0  0  0  0  0  0  0  0  0  0  0  0
   -0.7450   -1.8789    3.7587 H   0  0  0  0  0  0  0  0  0  0  0  0
    0.2397   -0.3816    3.6858 H   0  0  0  0  0  0  0  0  0  0  0  0
    0.7351   -3.3724    1.9240 C   0  0  0  0  0  0  0  0  0  0  0  0
    0.9425   -3.6627    0.8751 H   0  0  0  0  0  0  0  0  0  0  0  0
   -0.2184   -3.8495    2.2274 H   0  0  0  0  0  0  0  0  0  0  0  0
    1.5424   -3.7958    2.5554 H   0  0  0  0  0  0  0  0  0  0  0  0
    3.6987   -0.0448   -1.6529 C   0  0  0  0  0  0  0  0  0  0  0  0
    2.7505   -0.1825   -2.2123 H   0  0  0  0  0  0  0  0  0  0  0  0
    4.1320    1.4182   -1.8527 C   0  0  0  0  0  0  0  0  0  0  0  0
    3.4086    2.1255   -1.4008 H   0  0  0  0  0  0  0  0  0  0  0  0
    4.2133    1.6494   -2.9338 H   0  0  0  0  0  0  0  0  0  0  0  0
    5.1244    1.6190   -1.4014 H   0  0  0  0  0  0  0  0  0  0  0  0
    4.7363   -1.0132   -2.2499 C   0  0  0  0  0  0  0  0  0  0  0  0
    5.7127   -0.9162   -1.7328 H   0  0  0  0  0  0  0  0  0  0  0  0
    4.9009   -0.7970   -3.3246 H   0  0  0  0  0  0  0  0  0  0  0  0
    4.4169   -2.0703   -2.1584 H   0  0  0  0  0  0  0  0  0  0  0  0
  1 24  1  0  0  0  0
  2  4  1  0  0  0  0
  3 15  1  0  0  0  0
  4  3  1  0  0  0  0
  5  6  1  0  0  0  0
  5  3  1  0  0  0  0
  7  2  1  0  0  0  0
  7  5  2  0  0  0  0
  8  7  1  0  0  0  0
  9 12  1  0  0  0  0
  9  2  1  0  0  0  0
 10  9  1  0  0  0  0
 11  9  1  0  0  0  0
 12  1  1  0  0  0  0
 13 12  1  0  0  0  0
 14 12  1  0  0  0  0
 15 16  1  0  0  0  0
 16 37  1  0  0  0  0
 16 17  2  0  0  0  0
 17 18  1  0  0  0  0
 19 17  1  0  0  0  0
 19 20  1  0  0  0  0
 21 19  2  0  0  0  0
 22 21  1  0  0  0  0
 23 15  2  0  0  0  0
 23 21  1  0  0  0  0
 24 29  1  0  0  0  0
 25 26  1  0  0  0  0
 25 24  1  0  0  0  0
 25 27  1  0  0  0  0
 28 25  1  0  0  0  0
 29 30  1  0  0  0  0
 29 31  1  0  0  0  0
 29 32  1  0  0  0  0
 33 34  1  0  0  0  0
 33 24  1  0  0  0  0
 33 36  1  0  0  0  0
 35 33  1  0  0  0  0
 37 39  1  0  0  0  0
 38 37  1  0  0  0  0
 39 42  1  0  0  0  0
 39 41  1  0  0  0  0
 39 40  1  0  0  0  0
 43 37  1  0  0  0  0
 43 45  1  0  0  0  0
 43 46  1  0  0  0  0
 44 43  1  0  0  0  0
 47 23  1  0  0  0  0
 48 47  1  0  0  0  0
 49 47  1  0  0  0  0
 49 52  1  0  0  0  0
 49 50  1  0  0  0  0
 51 49  1  0  0  0  0
 53 56  1  0  0  0  0
 53 54  1  0  0  0  0
 53 47  1  0  0  0  0
 55 53  1  0  0  0  0
M  END
