3
 OpenBabel05122313113D

 49 52  0  0  0  0  0  0  0  0999 V2000
    1.1556    2.2683   -1.0567 P   0  0  0  0  0  0  0  0  0  0  0  0
   -1.8176    1.3152   -0.8376 C   0  0  0  0  0  0  0  0  0  0  0  0
   -0.7830    0.3065   -0.5403 C   0  0  0  0  0  3  0  0  0  0  0  0
    0.5639    0.5321   -0.6193 C   0  0  0  0  0  0  0  0  0  0  0  0
    1.5317   -0.4500   -0.3096 C   0  0  0  0  0  0  0  0  0  0  0  0
    2.4451   -1.2416   -0.0505 C   0  0  0  0  0  0  0  0  0  0  0  0
    3.5333   -2.1060    0.2493 C   0  0  0  0  0  0  0  0  0  0  0  0
   -2.4024    1.3921   -2.1290 C   0  0  0  0  0  0  0  0  0  0  0  0
   -1.9791    0.7807   -2.9395 H   0  0  0  0  0  0  0  0  0  0  0  0
   -3.4951    2.2304   -2.3734 C   0  0  0  0  0  0  0  0  0  0  0  0
   -3.9340    2.2733   -3.3821 H   0  0  0  0  0  0  0  0  0  0  0  0
   -4.0329    3.0135   -1.3380 C   0  0  0  0  0  0  0  0  0  0  0  0
   -4.9001    3.6637   -1.5295 H   0  0  0  0  0  0  0  0  0  0  0  0
   -3.4447    2.9775   -0.0633 C   0  0  0  0  0  0  0  0  0  0  0  0
   -3.8416    3.6089    0.7464 H   0  0  0  0  0  0  0  0  0  0  0  0
   -2.3513    2.1405    0.1873 C   0  0  0  0  0  0  0  0  0  0  0  0
   -1.8894    2.1218    1.1844 H   0  0  0  0  0  0  0  0  0  0  0  0
    3.3235   -3.4505    0.6552 C   0  0  0  0  0  0  0  0  0  0  0  0
    2.2944   -3.8313    0.7376 H   0  0  0  0  0  0  0  0  0  0  0  0
    4.4098   -4.2824    0.9489 C   0  0  0  0  0  0  0  0  0  0  0  0
    4.2303   -5.3222    1.2623 H   0  0  0  0  0  0  0  0  0  0  0  0
    5.7238   -3.7956    0.8452 C   0  0  0  0  0  0  0  0  0  0  0  0
    6.5758   -4.4527    1.0765 H   0  0  0  0  0  0  0  0  0  0  0  0
    5.9444   -2.4663    0.4449 C   0  0  0  0  0  0  0  0  0  0  0  0
    6.9717   -2.0797    0.3616 H   0  0  0  0  0  0  0  0  0  0  0  0
    4.8669   -1.6247    0.1491 C   0  0  0  0  0  0  0  0  0  0  0  0
    5.0339   -0.5853   -0.1685 H   0  0  0  0  0  0  0  0  0  0  0  0
    1.0383    3.0161    0.6375 C   0  0  0  0  0  0  0  0  0  0  0  0
    1.4513    2.3380    1.8063 C   0  0  0  0  0  0  0  0  0  0  0  0
    1.9298    1.3498    1.7209 H   0  0  0  0  0  0  0  0  0  0  0  0
    1.2531    2.9153    3.0691 C   0  0  0  0  0  0  0  0  0  0  0  0
    1.5747    2.3761    3.9736 H   0  0  0  0  0  0  0  0  0  0  0  0
    0.6435    4.1776    3.1805 C   0  0  0  0  0  0  0  0  0  0  0  0
    0.4850    4.6272    4.1728 H   0  0  0  0  0  0  0  0  0  0  0  0
    0.2382    4.8620    2.0245 C   0  0  0  0  0  0  0  0  0  0  0  0
   -0.2401    5.8501    2.1066 H   0  0  0  0  0  0  0  0  0  0  0  0
    0.4324    4.2822    0.7598 C   0  0  0  0  0  0  0  0  0  0  0  0
    0.0936    4.8054   -0.1481 H   0  0  0  0  0  0  0  0  0  0  0  0
    2.9724    1.9986   -1.2521 C   0  0  0  0  0  0  0  0  0  0  0  0
    3.3964    1.2162   -2.3509 C   0  0  0  0  0  0  0  0  0  0  0  0
    2.6457    0.7579   -3.0149 H   0  0  0  0  0  0  0  0  0  0  0  0
    4.7589    1.0080   -2.6008 C   0  0  0  0  0  0  0  0  0  0  0  0
    5.0686    0.3844   -3.4534 H   0  0  0  0  0  0  0  0  0  0  0  0
    5.7269    1.5946   -1.7669 C   0  0  0  0  0  0  0  0  0  0  0  0
    6.7979    1.4363   -1.9653 H   0  0  0  0  0  0  0  0  0  0  0  0
    5.3173    2.3855   -0.6823 C   0  0  0  0  0  0  0  0  0  0  0  0
    6.0677    2.8514   -0.0249 H   0  0  0  0  0  0  0  0  0  0  0  0
    3.9509    2.5856   -0.4242 C   0  0  0  0  0  0  0  0  0  0  0  0
    3.6439    3.2015    0.4340 H   0  0  0  0  0  0  0  0  0  0  0  0
  1  4  1  0  0  0  0
  1 28  1  0  0  0  0
  2  3  1  0  0  0  0
  2 16  1  0  0  0  0
  4  3  2  0  0  0  0
  4  5  1  0  0  0  0
  5  6  3  0  0  0  0
  6  7  1  0  0  0  0
  7 18  1  0  0  0  0
  8  2  2  0  0  0  0
  9  8  1  0  0  0  0
 10  8  1  0  0  0  0
 10 12  2  0  0  0  0
 11 10  1  0  0  0  0
 12 14  1  0  0  0  0
 13 12  1  0  0  0  0
 14 16  2  0  0  0  0
 14 15  1  0  0  0  0
 16 17  1  0  0  0  0
 18 19  1  0  0  0  0
 18 20  2  0  0  0  0
 20 21  1  0  0  0  0
 22 20  1  0  0  0  0
 22 23  1  0  0  0  0
 24 22  2  0  0  0  0
 25 24  1  0  0  0  0
 26  7  2  0  0  0  0
 26 24  1  0  0  0  0
 27 26  1  0  0  0  0
 28 37  2  0  0  0  0
 28 29  1  0  0  0  0
 29 31  2  0  0  0  0
 30 29  1  0  0  0  0
 31 33  1  0  0  0  0
 31 32  1  0  0  0  0
 33 34  1  0  0  0  0
 35 36  1  0  0  0  0
 35 33  2  0  0  0  0
 37 35  1  0  0  0  0
 38 37  1  0  0  0  0
 39  1  1  0  0  0  0
 39 48  1  0  0  0  0
 40 39  2  0  0  0  0
 41 40  1  0  0  0  0
 42 40  1  0  0  0  0
 42 44  2  0  0  0  0
 43 42  1  0  0  0  0
 44 46  1  0  0  0  0
 45 44  1  0  0  0  0
 46 48  2  0  0  0  0
 46 47  1  0  0  0  0
 48 49  1  0  0  0  0
M  END
