7
 OpenBabel05122313113D

 71 75  0  0  1  0  0  0  0  0999 V2000
    1.2659   -0.2846   -1.0906 P   0  0  0  0  0  0  0  0  0  0  0  0
   -1.7557   -3.4365   -0.6339 S   0  0  0  0  0  0  0  0  0  0  0  0
    1.6041   -1.2300   -2.6595 C   0  0  0  0  0  0  0  0  0  0  0  0
    1.8813   -2.7283   -2.4701 C   0  0  0  0  0  0  0  0  0  0  0  0
    0.6451   -3.5956   -2.1655 C   0  0  0  0  0  0  0  0  0  0  0  0
    0.0170   -3.3590   -0.8189 C   0  0  2  0  0  3  0  0  0  0  0  0
    0.6802   -3.3262    0.4467 C   0  0  0  0  0  3  0  0  0  0  0  0
   -0.2309   -3.1142    1.5305 C   0  0  0  0  0  0  0  0  0  0  0  0
   -1.3383    0.4103    1.0537 P   0  0  0  0  0  0  0  0  0  0  0  0
   -1.5767   -2.9736    1.0917 C   0  0  0  0  0  0  0  0  0  0  0  0
   -2.7751   -2.7455    1.9713 C   0  0  0  0  0  0  0  0  0  0  0  0
   -3.4116   -1.3402    1.9223 C   0  0  0  0  0  0  0  0  0  0  0  0
   -2.4978   -0.1950    2.3849 C   0  0  0  0  0  0  0  0  0  0  0  0
   -0.1255    1.7174   -2.4559 C   0  0  0  0  0  0  0  0  0  0  0  0
   -0.3754    3.0216   -2.9030 C   0  0  0  0  0  0  0  0  0  0  0  0
    0.5377    4.0499   -2.6131 C   0  0  0  0  0  0  0  0  0  0  0  0
    1.7015    3.7658   -1.8814 C   0  0  0  0  0  0  0  0  0  0  0  0
    1.9503    2.4629   -1.4220 C   0  0  0  0  0  0  0  0  0  0  0  0
    1.0345    1.4300   -1.7061 C   0  0  0  0  0  0  0  0  0  0  0  0
    4.1131   -0.1599   -0.9118 C   0  0  0  0  0  0  0  0  0  0  0  0
    5.3206   -0.1010   -0.2000 C   0  0  0  0  0  0  0  0  0  0  0  0
    5.3144   -0.1194    1.2045 C   0  0  0  0  0  0  0  0  0  0  0  0
    4.0969   -0.2017    1.8984 C   0  0  0  0  0  0  0  0  0  0  0  0
    2.8885   -0.2736    1.1902 C   0  0  0  0  0  0  0  0  0  0  0  0
    2.8863   -0.2491   -0.2194 C   0  0  0  0  0  0  0  0  0  0  0  0
   -3.0271    2.5750    0.2928 C   0  0  0  0  0  0  0  0  0  0  0  0
   -3.9772    3.1881   -0.5372 C   0  0  0  0  0  0  0  0  0  0  0  0
   -4.4392    2.5316   -1.6900 C   0  0  0  0  0  0  0  0  0  0  0  0
   -3.9547    1.2535   -2.0103 C   0  0  0  0  0  0  0  0  0  0  0  0
   -2.9937    0.6432   -1.1903 C   0  0  0  0  0  0  0  0  0  0  0  0
   -2.5154    1.3034   -0.0401 C   0  0  0  0  0  0  0  0  0  0  0  0
    0.0731    2.8609    1.2004 C   0  0  0  0  0  0  0  0  0  0  0  0
    0.9768    3.7530    1.7976 C   0  0  0  0  0  0  0  0  0  0  0  0
    1.5255    3.4717    3.0573 C   0  0  0  0  0  0  0  0  0  0  0  0
    1.1687    2.2880    3.7245 C   0  0  0  0  0  0  0  0  0  0  0  0
    0.2696    1.3911    3.1325 C   0  0  0  0  0  0  0  0  0  0  0  0
   -0.2928    1.6735    1.8677 C   0  0  0  0  0  0  0  0  0  0  0  0
    0.7225   -1.0673   -3.3146 H   0  0  0  0  0  0  0  0  0  0  0  0
    2.4594   -0.7394   -3.1665 H   0  0  0  0  0  0  0  0  0  0  0  0
    2.3299   -3.1161   -3.4075 H   0  0  0  0  0  0  0  0  0  0  0  0
    2.6594   -2.8730   -1.6898 H   0  0  0  0  0  0  0  0  0  0  0  0
   -0.1175   -3.4356   -2.9556 H   0  0  0  0  0  0  0  0  0  0  0  0
    0.9353   -4.6669   -2.2299 H   0  0  0  0  0  0  0  0  0  0  0  0
    1.7656   -3.4480    0.5640 H   0  0  0  0  0  0  0  0  0  0  0  0
    0.0588   -3.0639    2.5889 H   0  0  0  0  0  0  0  0  0  0  0  0
   -3.5545   -3.4967    1.7246 H   0  0  0  0  0  0  0  0  0  0  0  0
   -2.4625   -2.9616    3.0147 H   0  0  0  0  0  0  0  0  0  0  0  0
   -4.3002   -1.3637    2.5853 H   0  0  0  0  0  0  0  0  0  0  0  0
   -3.8049   -1.1305    0.9039 H   0  0  0  0  0  0  0  0  0  0  0  0
   -3.1007    0.6842    2.6907 H   0  0  0  0  0  0  0  0  0  0  0  0
   -1.8966   -0.5032    3.2655 H   0  0  0  0  0  0  0  0  0  0  0  0
   -0.8497    0.9209   -2.6795 H   0  0  0  0  0  0  0  0  0  0  0  0
   -1.2911    3.2352   -3.4742 H   0  0  0  0  0  0  0  0  0  0  0  0
    0.3420    5.0749   -2.9620 H   0  0  0  0  0  0  0  0  0  0  0  0
    2.4217    4.5671   -1.6571 H   0  0  0  0  0  0  0  0  0  0  0  0
    2.8512    2.2551   -0.8276 H   0  0  0  0  0  0  0  0  0  0  0  0
    4.1370   -0.1250   -2.0113 H   0  0  0  0  0  0  0  0  0  0  0  0
    6.2731   -0.0366   -0.7470 H   0  0  0  0  0  0  0  0  0  0  0  0
    6.2638   -0.0694    1.7586 H   0  0  0  0  0  0  0  0  0  0  0  0
    4.0867   -0.2106    2.9987 H   0  0  0  0  0  0  0  0  0  0  0  0
    1.9260   -0.3468    1.7201 H   0  0  0  0  0  0  0  0  0  0  0  0
   -2.6807    3.0940    1.1993 H   0  0  0  0  0  0  0  0  0  0  0  0
   -4.3637    4.1852   -0.2782 H   0  0  0  0  0  0  0  0  0  0  0  0
   -5.1862    3.0160   -2.3366 H   0  0  0  0  0  0  0  0  0  0  0  0
   -4.3239    0.7304   -2.9053 H   0  0  0  0  0  0  0  0  0  0  0  0
   -2.5945   -0.3544   -1.4407 H   0  0  0  0  0  0  0  0  0  0  0  0
   -0.3422    3.0924    0.2096 H   0  0  0  0  0  0  0  0  0  0  0  0
    1.2540    4.6751    1.2652 H   0  0  0  0  0  0  0  0  0  0  0  0
    2.2322    4.1751    3.5223 H   0  0  0  0  0  0  0  0  0  0  0  0
    1.5936    2.0613    4.7138 H   0  0  0  0  0  0  0  0  0  0  0  0
    0.0149    0.4594    3.6606 H   0  0  0  0  0  0  0  0  0  0  0  0
  1 25  1  0  0  0  0
  2 10  1  0  0  0  0
  3  4  1  0  0  0  0
  3  1  1  0  0  0  0
  4  5  1  0  0  0  0
  4 41  1  0  0  0  0
  6  5  1  1  0  0  0
  6  2  1  0  0  0  0
  6  7  1  0  0  0  0
  7 44  1  0  0  0  0
  7  8  1  0  0  0  0
  8 45  1  0  0  0  0
  9 37  1  0  0  0  0
  9 13  1  0  0  0  0
 10  8  2  0  0  0  0
 10 11  1  0  0  0  0
 11 47  1  0  0  0  0
 12 11  1  0  0  0  0
 12 13  1  0  0  0  0
 12 48  1  0  0  0  0
 13 50  1  0  0  0  0
 13 51  1  0  0  0  0
 14 19  1  0  0  0  0
 15 16  1  0  0  0  0
 15 14  2  0  0  0  0
 16 17  2  0  0  0  0
 17 55  1  0  0  0  0
 17 18  1  0  0  0  0
 18 56  1  0  0  0  0
 19 18  2  0  0  0  0
 19  1  1  0  0  0  0
 20 25  2  0  0  0  0
 20 21  1  0  0  0  0
 21 22  2  0  0  0  0
 22 59  1  0  0  0  0
 22 23  1  0  0  0  0
 23 60  1  0  0  0  0
 24 61  1  0  0  0  0
 24 23  2  0  0  0  0
 25 24  1  0  0  0  0
 26 62  1  0  0  0  0
 27 63  1  0  0  0  0
 27 26  2  0  0  0  0
 28 27  1  0  0  0  0
 29 28  2  0  0  0  0
 29 30  1  0  0  0  0
 30 31  2  0  0  0  0
 31 26  1  0  0  0  0
 31  9  1  0  0  0  0
 32 33  2  0  0  0  0
 32 37  1  0  0  0  0
 33 34  1  0  0  0  0
 34 69  1  0  0  0  0
 34 35  2  0  0  0  0
 35 70  1  0  0  0  0
 36 71  1  0  0  0  0
 36 35  1  0  0  0  0
 37 36  2  0  0  0  0
 38  3  1  0  0  0  0
 39  3  1  0  0  0  0
 40  4  1  0  0  0  0
 42  5  1  0  0  0  0
 43  5  1  0  0  0  0
 46 11  1  0  0  0  0
 49 12  1  0  0  0  0
 52 14  1  0  0  0  0
 53 15  1  0  0  0  0
 54 16  1  0  0  0  0
 57 20  1  0  0  0  0
 58 21  1  0  0  0  0
 64 28  1  0  0  0  0
 65 29  1  0  0  0  0
 66 30  1  0  0  0  0
 67 32  1  0  0  0  0
 68 33  1  0  0  0  0
M  END
