2
 OpenBabel05122313113D

 14 14  0  0  0  0  0  0  0  0999 V2000
   -2.9074   -1.4978   -0.7657 C   0  0  0  0  0  3  0  0  0  0  0  0
   -1.6720   -1.7319   -1.4719 C   0  0  0  0  0  3  0  0  0  0  0  0
   -1.0708   -0.4445   -1.6703 C   0  0  0  0  0  3  0  0  0  0  0  0
   -1.9688    0.5178   -1.0860 C   0  0  0  0  0  3  0  0  0  0  0  0
   -3.3787   -0.0752   -1.0668 C   0  0  0  0  0  0  0  0  0  0  0  0
   -4.1846    0.0974   -2.3654 C   0  0  0  0  0  0  0  0  0  0  0  0
   -3.5836   -2.3098   -0.4612 H   0  0  0  0  0  0  0  0  0  0  0  0
   -1.2583   -2.6995   -1.7853 H   0  0  0  0  0  0  0  0  0  0  0  0
   -0.1126   -0.2432   -2.1677 H   0  0  0  0  0  0  0  0  0  0  0  0
   -1.7582    1.5974   -1.0763 H   0  0  0  0  0  0  0  0  0  0  0  0
   -3.9685    0.3340   -0.2207 H   0  0  0  0  0  0  0  0  0  0  0  0
   -4.4005    1.1687   -2.5601 H   0  0  0  0  0  0  0  0  0  0  0  0
   -3.6239   -0.3039   -3.2343 H   0  0  0  0  0  0  0  0  0  0  0  0
   -5.1555   -0.4370   -2.3052 H   0  0  0  0  0  0  0  0  0  0  0  0
  1  7  1  0  0  0  0
  2  1  1  0  0  0  0
  3  2  1  0  0  0  0
  3  4  1  0  0  0  0
  4 10  1  0  0  0  0
  4  5  1  0  0  0  0
  5  1  1  0  0  0  0
  5 11  1  0  0  0  0
  6 14  1  0  0  0  0
  6  5  1  0  0  0  0
  8  2  1  0  0  0  0
  9  3  1  0  0  0  0
 12  6  1  0  0  0  0
 13  6  1  0  0  0  0
M  END
