8
 OpenBabel05122313113D

 38 40  0  0  1  0  0  0  0  0999 V2000
    0.1621    0.7265    0.4168 C   0  0  2  0  0  3  0  0  0  0  0  0
   -0.4526    1.3783   -0.7944 C   0  0  0  0  0  0  0  0  0  0  0  0
   -0.1152    2.4675   -1.2569 O   0  0  0  0  0  0  0  0  0  0  0  0
   -1.7099    0.6828   -1.2258 C   0  0  0  0  0  0  0  0  0  0  0  0
   -1.7097   -0.6835   -1.2256 C   0  0  0  0  0  0  0  0  0  0  0  0
   -0.4523   -1.3785   -0.7940 C   0  0  0  0  0  0  0  0  0  0  0  0
   -0.1149   -2.4680   -1.2559 O   0  0  0  0  0  0  0  0  0  0  0  0
    0.1623   -0.7262    0.4170 C   0  0  2  0  0  3  0  0  0  0  0  0
   -0.1458    1.6151    1.6178 C   0  0  0  0  0  0  0  0  0  0  0  0
    0.2714    1.1600    2.5381 H   0  0  0  0  0  0  0  0  0  0  0  0
    0.3904    2.5768    1.4709 H   0  0  0  0  0  0  0  0  0  0  0  0
   -1.6489    1.9120    1.8717 C   0  0  0  0  0  0  0  0  0  0  0  0
   -2.1911    0.9513    2.0014 H   0  0  0  0  0  0  0  0  0  0  0  0
   -1.6848    2.3981    2.8691 H   0  0  0  0  0  0  0  0  0  0  0  0
   -2.4528    2.8108    0.8886 C   0  0  0  0  0  0  0  0  0  0  0  0
   -1.7713    3.4982    0.3450 H   0  0  0  0  0  0  0  0  0  0  0  0
   -3.0882    3.4681    1.5173 H   0  0  0  0  0  0  0  0  0  0  0  0
   -3.4236    2.1273   -0.1059 C   0  0  0  0  0  0  0  0  0  0  0  0
   -3.9227    1.2795    0.4141 H   0  0  0  0  0  0  0  0  0  0  0  0
   -4.2311    2.8497   -0.3506 H   0  0  0  0  0  0  0  0  0  0  0  0
   -2.8587    1.6127   -1.4567 C   0  0  0  0  0  0  0  0  0  0  0  0
   -2.4836    2.4767   -2.0449 H   0  0  0  0  0  0  0  0  0  0  0  0
   -3.6725    1.1281   -2.0322 H   0  0  0  0  0  0  0  0  0  0  0  0
   -2.8583   -1.6136   -1.4564 C   0  0  0  0  0  0  0  0  0  0  0  0
   -3.6721   -1.1294   -2.0322 H   0  0  0  0  0  0  0  0  0  0  0  0
   -2.4830   -2.4778   -2.0442 H   0  0  0  0  0  0  0  0  0  0  0  0
   -3.4234   -2.1279   -0.1055 C   0  0  0  0  0  0  0  0  0  0  0  0
   -3.9230   -1.2802    0.4141 H   0  0  0  0  0  0  0  0  0  0  0  0
   -4.2305   -2.8507   -0.3501 H   0  0  0  0  0  0  0  0  0  0  0  0
   -2.4525   -2.8106    0.8894 C   0  0  0  0  0  0  0  0  0  0  0  0
   -1.7706   -3.4980    0.3461 H   0  0  0  0  0  0  0  0  0  0  0  0
   -3.0875   -3.4679    1.5184 H   0  0  0  0  0  0  0  0  0  0  0  0
   -1.6489   -1.9107    1.8720 C   0  0  0  0  0  0  0  0  0  0  0  0
   -1.6854   -2.3957    2.8699 H   0  0  0  0  0  0  0  0  0  0  0  0
   -2.1909   -0.9498    2.0002 H   0  0  0  0  0  0  0  0  0  0  0  0
   -0.1457   -1.6144    1.6183 C   0  0  0  0  0  0  0  0  0  0  0  0
    0.2715   -1.1589    2.5385 H   0  0  0  0  0  0  0  0  0  0  0  0
    0.3904   -2.5763    1.4719 H   0  0  0  0  0  0  0  0  0  0  0  0
  1  2  1  6  0  0  0
  1  8  1  0  0  0  0
  1  9  1  0  0  0  0
  3  2  2  0  0  0  0
  4  5  2  0  0  0  0
  4  2  1  0  0  0  0
  5  6  1  0  0  0  0
  7  6  2  0  0  0  0
  8  6  1  6  0  0  0
  8 36  1  0  0  0  0
  9 12  1  0  0  0  0
  9 10  1  0  0  0  0
 11  9  1  0  0  0  0
 12 13  1  0  0  0  0
 12 14  1  0  0  0  0
 15 17  1  0  0  0  0
 15 12  1  0  0  0  0
 16 15  1  0  0  0  0
 18 19  1  0  0  0  0
 18 15  1  0  0  0  0
 20 18  1  0  0  0  0
 21  4  1  0  0  0  0
 21 18  1  0  0  0  0
 22 21  1  0  0  0  0
 23 21  1  0  0  0  0
 24  5  1  0  0  0  0
 24 27  1  0  0  0  0
 25 24  1  0  0  0  0
 26 24  1  0  0  0  0
 27 28  1  0  0  0  0
 27 30  1  0  0  0  0
 29 27  1  0  0  0  0
 30 32  1  0  0  0  0
 30 33  1  0  0  0  0
 31 30  1  0  0  0  0
 33 35  1  0  0  0  0
 33 34  1  0  0  0  0
 36 33  1  0  0  0  0
 36 37  1  0  0  0  0
 38 36  1  0  0  0  0
M  END
