3
 OpenBabel05122313113D

 19 18  0  0  1  0  0  0  0  0999 V2000
   -1.3990   -0.0042   -1.6383 P   0  0  0  0  0  1  0  0  0  0  0  0
   -1.6709   -0.1967    2.3562 C   0  0  0  0  0  0  0  0  0  0  0  0
   -1.3621   -0.1030    1.0348 C   0  0  0  0  0  3  0  0  0  0  0  0
   -2.2536   -0.0590   -0.1270 C   0  0  1  0  0  3  0  0  0  0  0  0
   -3.8048   -0.0283   -0.0573 C   0  0  0  0  0  0  0  0  0  0  0  0
   -4.3429   -1.3102    0.6202 C   0  0  0  0  0  0  0  0  0  0  0  0
   -4.2621    1.2193    0.7342 C   0  0  0  0  0  0  0  0  0  0  0  0
   -4.4239    0.0542   -1.4627 C   0  0  0  0  0  0  0  0  0  0  0  0
   -2.7026   -0.2530    2.7501 H   0  0  0  0  0  0  0  0  0  0  0  0
   -0.8842   -0.1986    3.1304 H   0  0  0  0  0  0  0  0  0  0  0  0
   -3.9103   -1.4721    1.6245 H   0  0  0  0  0  0  0  0  0  0  0  0
   -4.1089   -2.2023    0.0054 H   0  0  0  0  0  0  0  0  0  0  0  0
   -5.4470   -1.2529    0.7241 H   0  0  0  0  0  0  0  0  0  0  0  0
   -3.9280    2.1460    0.2242 H   0  0  0  0  0  0  0  0  0  0  0  0
   -3.8595    1.2348    1.7639 H   0  0  0  0  0  0  0  0  0  0  0  0
   -5.3703    1.2499    0.7950 H   0  0  0  0  0  0  0  0  0  0  0  0
   -5.5313    0.0710   -1.3904 H   0  0  0  0  0  0  0  0  0  0  0  0
   -4.1280   -0.8140   -2.0860 H   0  0  0  0  0  0  0  0  0  0  0  0
   -4.0943    0.9680   -1.9977 H   0  0  0  0  0  0  0  0  0  0  0  0
  2  9  1  0  0  0  0
  2 10  1  0  0  0  0
  3  2  2  0  0  0  0
  4  1  1  1  0  0  0
  4  5  1  0  0  0  0
  4  3  1  0  0  0  0
  5  6  1  0  0  0  0
  5  7  1  0  0  0  0
  6 13  1  0  0  0  0
  6 11  1  0  0  0  0
  7 16  1  0  0  0  0
  7 15  1  0  0  0  0
  8 17  1  0  0  0  0
  8  5  1  0  0  0  0
 12  6  1  0  0  0  0
 14  7  1  0  0  0  0
 18  8  1  0  0  0  0
 19  8  1  0  0  0  0
M  END
