3
 OpenBabel05122313113D

 38 41  0  0  0  0  0  0  0  0999 V2000
    0.7072   -0.1918    0.2576 P   0  0  0  0  0  0  0  0  0  0  0  0
   -3.4453   -0.0544    0.0378 N   0  0  0  0  0  0  0  0  0  0  0  0
   -2.1267   -0.1486    0.2339 C   0  0  0  0  0  3  0  0  0  0  0  0
   -4.3057   -0.2314    1.0791 C   0  0  0  0  0  0  0  0  0  0  0  0
   -5.3786   -0.1349    0.8302 H   0  0  0  0  0  0  0  0  0  0  0  0
   -3.9254   -0.5196    2.3821 C   0  0  0  0  0  0  0  0  0  0  0  0
   -4.6744   -0.6618    3.1763 H   0  0  0  0  0  0  0  0  0  0  0  0
   -1.9950   -0.9656    3.9465 C   0  0  0  0  0  0  0  0  0  0  0  0
   -2.6866   -1.1334    4.7876 H   0  0  0  0  0  0  0  0  0  0  0  0
   -0.6224   -1.0932    4.1326 C   0  0  0  0  0  0  0  0  0  0  0  0
   -0.2272   -1.3656    5.1236 H   0  0  0  0  0  0  0  0  0  0  0  0
    0.2787   -0.8807    3.0560 C   0  0  0  0  0  0  0  0  0  0  0  0
    1.3626   -0.9990    3.2109 H   0  0  0  0  0  0  0  0  0  0  0  0
   -0.2262   -0.5359    1.8038 C   0  0  0  0  0  0  0  0  0  0  0  0
   -1.6255   -0.4308    1.5761 C   0  0  0  0  0  0  0  0  0  0  0  0
   -2.5343   -0.6379    2.6672 C   0  0  0  0  0  0  0  0  0  0  0  0
    1.9180   -1.5787    0.1461 C   0  0  0  0  0  0  0  0  0  0  0  0
    1.4008   -2.8918    0.1943 C   0  0  0  0  0  0  0  0  0  0  0  0
    0.3202   -3.0420    0.3440 H   0  0  0  0  0  0  0  0  0  0  0  0
    2.2548   -3.9945    0.0611 C   0  0  0  0  0  0  0  0  0  0  0  0
    1.8416   -5.0138    0.1050 H   0  0  0  0  0  0  0  0  0  0  0  0
    3.6342   -3.8001   -0.1271 C   0  0  0  0  0  0  0  0  0  0  0  0
    4.3043   -4.6666   -0.2348 H   0  0  0  0  0  0  0  0  0  0  0  0
    4.1536   -2.4978   -0.1720 C   0  0  0  0  0  0  0  0  0  0  0  0
    5.2340   -2.3389   -0.3113 H   0  0  0  0  0  0  0  0  0  0  0  0
    3.3016   -1.3894   -0.0328 C   0  0  0  0  0  0  0  0  0  0  0  0
    3.7189   -0.3719   -0.0578 H   0  0  0  0  0  0  0  0  0  0  0  0
    1.7470    1.2974    0.6057 C   0  0  0  0  0  0  0  0  0  0  0  0
    2.3920    1.8997   -0.4975 C   0  0  0  0  0  0  0  0  0  0  0  0
    2.2915    1.4383   -1.4933 H   0  0  0  0  0  0  0  0  0  0  0  0
    3.1149    3.0900   -0.3389 C   0  0  0  0  0  0  0  0  0  0  0  0
    3.6190    3.5437   -1.2061 H   0  0  0  0  0  0  0  0  0  0  0  0
    3.1794    3.7122    0.9206 C   0  0  0  0  0  0  0  0  0  0  0  0
    3.7388    4.6521    1.0451 H   0  0  0  0  0  0  0  0  0  0  0  0
    2.5219    3.1316    2.0164 C   0  0  0  0  0  0  0  0  0  0  0  0
    2.5602    3.6175    3.0036 H   0  0  0  0  0  0  0  0  0  0  0  0
    1.8113    1.9291    1.8624 C   0  0  0  0  0  0  0  0  0  0  0  0
    1.2897    1.4872    2.7238 H   0  0  0  0  0  0  0  0  0  0  0  0
  1 28  1  0  0  0  0
  1 14  1  0  0  0  0
  2  3  2  0  0  0  0
  2  4  1  0  0  0  0
  3 15  1  0  0  0  0
  4  6  2  0  0  0  0
  5  4  1  0  0  0  0
  6 16  1  0  0  0  0
  6  7  1  0  0  0  0
  8 10  1  0  0  0  0
  8  9  1  0  0  0  0
 10 11  1  0  0  0  0
 12 13  1  0  0  0  0
 12 10  2  0  0  0  0
 14 12  1  0  0  0  0
 15 14  2  0  0  0  0
 15 16  1  0  0  0  0
 16  8  2  0  0  0  0
 17 18  1  0  0  0  0
 17  1  1  0  0  0  0
 18 19  1  0  0  0  0
 20 21  1  0  0  0  0
 20 18  2  0  0  0  0
 22 20  1  0  0  0  0
 23 22  1  0  0  0  0
 24 22  2  0  0  0  0
 24 26  1  0  0  0  0
 25 24  1  0  0  0  0
 26 17  2  0  0  0  0
 27 26  1  0  0  0  0
 28 37  1  0  0  0  0
 29 31  1  0  0  0  0
 29 28  2  0  0  0  0
 30 29  1  0  0  0  0
 31 33  2  0  0  0  0
 32 31  1  0  0  0  0
 33 34  1  0  0  0  0
 33 35  1  0  0  0  0
 35 36  1  0  0  0  0
 37 35  2  0  0  0  0
 37 38  1  0  0  0  0
M  END
