5
 OpenBabel05122313113D

 29 29  0  0  0  0  0  0  0  0999 V2000
    6.7186    0.0572   -0.5723 O   0  0  0  0  0  0  0  0  0  0  0  0
    3.2599    1.3024   -0.1663 C   0  0  0  0  0  0  0  0  0  0  0  0
    2.6940    2.2273    0.0133 H   0  0  0  0  0  0  0  0  0  0  0  0
    5.3751    0.1356   -0.4777 C   0  0  0  0  0  0  0  0  0  0  0  0
    0.0122    0.0359   -0.1689 C   0  0  0  0  0  1  0  0  0  0  0  0
    2.5662    0.0844   -0.3161 C   0  0  0  0  0  0  0  0  0  0  0  0
    4.6556    1.3308   -0.2464 C   0  0  0  0  0  0  0  0  0  0  0  0
    5.1759    2.2897   -0.1279 H   0  0  0  0  0  0  0  0  0  0  0  0
    3.2823   -1.1146   -0.5487 C   0  0  0  0  0  0  0  0  0  0  0  0
    2.7329   -2.0593   -0.6644 H   0  0  0  0  0  0  0  0  0  0  0  0
    4.6703   -1.0838   -0.6277 C   0  0  0  0  0  0  0  0  0  0  0  0
    5.2488   -2.0008   -0.8076 H   0  0  0  0  0  0  0  0  0  0  0  0
    1.1933    0.0601   -0.2367 N   0  0  0  0  0  2  0  0  0  0  0  0
    7.5078    1.2440   -0.4231 C   0  0  0  0  0  0  0  0  0  0  0  0
    7.2963    1.7072    0.5687 H   0  0  0  0  0  0  0  0  0  0  0  0
    7.2255    1.9787   -1.2110 H   0  0  0  0  0  0  0  0  0  0  0  0
    8.9730    0.8572   -0.5356 C   0  0  0  0  0  0  0  0  0  0  0  0
    9.5686    1.7958   -0.5251 H   0  0  0  0  0  0  0  0  0  0  0  0
    9.1413    0.3942   -1.5322 H   0  0  0  0  0  0  0  0  0  0  0  0
    9.4538   -0.0864    0.5698 C   0  0  0  0  0  0  0  0  0  0  0  0
    9.2923    0.3962    1.5607 H   0  0  0  0  0  0  0  0  0  0  0  0
    8.8161   -0.9967    0.5688 H   0  0  0  0  0  0  0  0  0  0  0  0
   10.9247   -0.4892    0.4322 C   0  0  0  0  0  0  0  0  0  0  0  0
   11.5565    0.4271    0.4235 H   0  0  0  0  0  0  0  0  0  0  0  0
   11.0785   -0.9667   -0.5611 H   0  0  0  0  0  0  0  0  0  0  0  0
   11.3994   -1.4332    1.5371 C   0  0  0  0  0  0  0  0  0  0  0  0
   11.2935   -0.9674    2.5392 H   0  0  0  0  0  0  0  0  0  0  0  0
   12.4646   -1.7117    1.4094 H   0  0  0  0  0  0  0  0  0  0  0  0
   10.8067   -2.3717    1.5466 H   0  0  0  0  0  0  0  0  0  0  0  0
  1  4  1  0  0  0  0
  1 14  1  0  0  0  0
  2  3  1  0  0  0  0
  4  7  2  0  0  0  0
  6 13  1  0  0  0  0
  6  2  2  0  0  0  0
  7  2  1  0  0  0  0
  7  8  1  0  0  0  0
  9  6  1  0  0  0  0
 10  9  1  0  0  0  0
 11  9  2  0  0  0  0
 11  4  1  0  0  0  0
 12 11  1  0  0  0  0
 13  5  1  0  0  0  0
 14 15  1  0  0  0  0
 16 14  1  0  0  0  0
 17 18  1  0  0  0  0
 17 14  1  0  0  0  0
 17 20  1  0  0  0  0
 19 17  1  0  0  0  0
 20 21  1  0  0  0  0
 22 20  1  0  0  0  0
 23 20  1  0  0  0  0
 23 26  1  0  0  0  0
 24 23  1  0  0  0  0
 25 23  1  0  0  0  0
 26 29  1  0  0  0  0
 26 27  1  0  0  0  0
 28 26  1  0  0  0  0
M  END
