10
 OpenBabel05122313113D

 46 48  0  0  1  0  0  0  0  0999 V2000
   -1.8110    2.9835    0.8350 O   0  0  0  0  0  0  0  0  0  0  0  0
   -2.4794    1.6138   -0.8585 O   0  0  0  0  0  0  0  0  0  0  0  0
   -2.6315   -2.0988   -1.2884 O   0  0  0  0  0  0  0  0  0  0  0  0
   -3.8436   -1.5217    0.5557 O   0  0  0  0  0  0  0  0  0  0  0  0
   -0.3483    1.4364   -0.0757 N   0  0  0  0  0  0  0  0  0  0  0  0
   -1.5901   -1.1618    0.5513 N   0  0  0  0  0  0  0  0  0  0  0  0
    0.5842    1.6624    1.0183 C   0  0  2  0  0  0  0  0  0  0  0  0
    2.0349    1.8126    0.6166 C   0  0  0  0  0  3  0  0  0  0  0  0
    2.5859    1.9414   -0.6681 C   0  0  0  0  0  3  0  0  0  0  0  0
    2.1407    1.1637   -1.7919 C   0  0  0  0  0  3  0  0  0  0  0  0
    1.1163    0.2072   -1.7051 C   0  0  0  0  0  3  0  0  0  0  0  0
   -0.1942    0.2856   -0.9532 C   0  0  1  0  0  0  0  0  0  0  0  0
   -0.3471   -1.0740   -0.2378 C   0  0  1  0  0  0  0  0  0  0  0  0
    0.8837   -1.4415    0.5731 C   0  0  0  0  0  3  0  0  0  0  0  0
    1.3079   -0.6782    1.6559 C   0  0  0  0  0  3  0  0  0  0  0  0
    0.5402    0.5550    2.1111 C   0  0  2  0  0  0  0  0  0  0  0  0
   -1.7335   -0.5920    1.8262 C   0  0  0  0  0  0  0  0  0  0  0  0
   -0.8431    0.1414    2.5422 C   0  0  0  0  0  0  0  0  0  0  0  0
   -1.5680    2.0897    0.0375 C   0  0  0  0  0  0  0  0  0  0  0  0
   -3.8064    2.1581   -0.7424 C   0  0  0  0  0  0  0  0  0  0  0  0
   -4.6258    1.6128   -1.8941 C   0  0  0  0  0  0  0  0  0  0  0  0
   -2.6975   -1.6438   -0.1564 C   0  0  0  0  0  0  0  0  0  0  0  0
   -5.0443   -2.0217   -0.0701 C   0  0  0  0  0  0  0  0  0  0  0  0
   -6.2247   -1.2600    0.4969 C   0  0  0  0  0  0  0  0  0  0  0  0
    0.2378    2.6119    1.4753 H   0  0  0  0  0  0  0  0  0  0  0  0
    2.6404    2.2441    1.4308 H   0  0  0  0  0  0  0  0  0  0  0  0
    3.5121    2.5224   -0.7990 H   0  0  0  0  0  0  0  0  0  0  0  0
    2.7537    1.2074   -2.7055 H   0  0  0  0  0  0  0  0  0  0  0  0
    1.0599   -0.4989   -2.5497 H   0  0  0  0  0  0  0  0  0  0  0  0
   -1.0096    0.3620   -1.6963 H   0  0  0  0  0  0  0  0  0  0  0  0
   -0.4695   -1.8229   -1.0411 H   0  0  0  0  0  0  0  0  0  0  0  0
    1.1433   -2.5113    0.5780 H   0  0  0  0  0  0  0  0  0  0  0  0
    1.8863   -1.1979    2.4353 H   0  0  0  0  0  0  0  0  0  0  0  0
    1.0730    0.9794    2.9845 H   0  0  0  0  0  0  0  0  0  0  0  0
   -2.7171   -0.8027    2.2637 H   0  0  0  0  0  0  0  0  0  0  0  0
   -1.1957    0.4757    3.5286 H   0  0  0  0  0  0  0  0  0  0  0  0
   -3.7505    3.2663   -0.7489 H   0  0  0  0  0  0  0  0  0  0  0  0
   -4.2251    1.8605    0.2435 H   0  0  0  0  0  0  0  0  0  0  0  0
   -5.6695    1.9784   -1.8248 H   0  0  0  0  0  0  0  0  0  0  0  0
   -4.6413    0.5048   -1.8810 H   0  0  0  0  0  0  0  0  0  0  0  0
   -4.2088    1.9366   -2.8682 H   0  0  0  0  0  0  0  0  0  0  0  0
   -4.9475   -1.9045   -1.1684 H   0  0  0  0  0  0  0  0  0  0  0  0
   -5.1185   -3.1107    0.1399 H   0  0  0  0  0  0  0  0  0  0  0  0
   -7.1669   -1.6473    0.0611 H   0  0  0  0  0  0  0  0  0  0  0  0
   -6.1515   -0.1802    0.2582 H   0  0  0  0  0  0  0  0  0  0  0  0
   -6.2840   -1.3696    1.5979 H   0  0  0  0  0  0  0  0  0  0  0  0
  2 20  1  0  0  0  0
  2 19  1  0  0  0  0
  3 22  2  0  0  0  0
  5 19  1  0  0  0  0
  5  7  1  0  0  0  0
  6 17  1  0  0  0  0
  7 25  1  1  0  0  0
  7 16  1  0  0  0  0
  8  7  1  0  0  0  0
  8 26  1  0  0  0  0
  9  8  1  0  0  0  0
 10 11  1  0  0  0  0
 10  9  1  0  0  0  0
 11 12  1  0  0  0  0
 12 30  1  6  0  0  0
 12 13  1  0  0  0  0
 12  5  1  0  0  0  0
 13 31  1  6  0  0  0
 13  6  1  0  0  0  0
 13 14  1  0  0  0  0
 14 32  1  0  0  0  0
 14 15  1  0  0  0  0
 15 16  1  0  0  0  0
 15 33  1  0  0  0  0
 16 18  1  0  0  0  0
 16 34  1  1  0  0  0
 17 35  1  0  0  0  0
 17 18  2  0  0  0  0
 18 36  1  0  0  0  0
 19  1  2  0  0  0  0
 20 38  1  0  0  0  0
 21 40  1  0  0  0  0
 21 39  1  0  0  0  0
 21 20  1  0  0  0  0
 22  6  1  0  0  0  0
 22  4  1  0  0  0  0
 23 43  1  0  0  0  0
 23 24  1  0  0  0  0
 23  4  1  0  0  0  0
 24 46  1  0  0  0  0
 27  9  1  0  0  0  0
 28 10  1  0  0  0  0
 29 11  1  0  0  0  0
 37 20  1  0  0  0  0
 41 21  1  0  0  0  0
 42 23  1  0  0  0  0
 44 24  1  0  0  0  0
 45 24  1  0  0  0  0
M  END
