3
 OpenBabel05122313113D

 20 21  0  0  0  0  0  0  0  0999 V2000
    2.6523    0.0124   -1.7468 S   0  0  0  0  0  0  0  0  0  0  0  0
    2.7843   -0.0752    0.7866 N   0  0  0  0  0  0  0  0  0  0  0  0
    1.8576   -0.0239   -0.1994 C   0  0  0  0  0  2  0  0  0  0  0  0
    4.1274   -0.0897    0.3872 C   0  0  0  0  0  0  0  0  0  0  0  0
    5.2694   -0.1468    1.2055 C   0  0  0  0  0  0  0  0  0  0  0  0
    5.1804   -0.1754    2.3000 H   0  0  0  0  0  0  0  0  0  0  0  0
    6.5272   -0.1649    0.5884 C   0  0  0  0  0  0  0  0  0  0  0  0
    7.4313   -0.2095    1.2131 H   0  0  0  0  0  0  0  0  0  0  0  0
    6.6512   -0.1266   -0.8156 C   0  0  0  0  0  0  0  0  0  0  0  0
    7.6504   -0.1408   -1.2751 H   0  0  0  0  0  0  0  0  0  0  0  0
    5.5158   -0.0706   -1.6356 C   0  0  0  0  0  0  0  0  0  0  0  0
    5.6086   -0.0425   -2.7308 H   0  0  0  0  0  0  0  0  0  0  0  0
    4.2538   -0.0517   -1.0232 C   0  0  0  0  0  0  0  0  0  0  0  0
    2.3803   -0.0759    2.2007 C   0  0  0  0  0  0  0  0  0  0  0  0
    3.0063   -0.8249    2.7281 H   0  0  0  0  0  0  0  0  0  0  0  0
    1.3400   -0.4587    2.2063 H   0  0  0  0  0  0  0  0  0  0  0  0
    2.4735    1.3054    2.8398 C   0  0  0  0  0  0  0  0  0  0  0  0
    3.5085    1.7013    2.8205 H   0  0  0  0  0  0  0  0  0  0  0  0
    2.1464    1.2495    3.8969 H   0  0  0  0  0  0  0  0  0  0  0  0
    1.8157    2.0207    2.3062 H   0  0  0  0  0  0  0  0  0  0  0  0
  1 13  1  0  0  0  0
  1  3  1  0  0  0  0
  2 14  1  0  0  0  0
  3  2  1  0  0  0  0
  4  2  1  0  0  0  0
  4  5  1  0  0  0  0
  5  6  1  0  0  0  0
  7  5  2  0  0  0  0
  7  8  1  0  0  0  0
  9  7  1  0  0  0  0
 10  9  1  0  0  0  0
 11 13  1  0  0  0  0
 11  9  2  0  0  0  0
 12 11  1  0  0  0  0
 13  4  2  0  0  0  0
 14 16  1  0  0  0  0
 14 15  1  0  0  0  0
 14 17  1  0  0  0  0
 17 19  1  0  0  0  0
 18 17  1  0  0  0  0
 20 17  1  0  0  0  0
M  END
