5
 OpenBabel05122313113D

 40 41  0  0  0  0  0  0  0  0999 V2000
    3.1586   -2.2345    1.3084 O   0  0  0  0  0  0  0  0  0  0  0  0
    4.6364   -1.6956   -0.3287 O   0  0  0  0  0  0  0  0  0  0  0  0
   -1.0877   -1.9953   -0.0731 N   0  0  0  0  0  0  0  0  0  0  0  0
    1.0296   -1.9958   -0.5273 N   0  0  0  0  0  0  0  0  0  0  0  0
   -0.0309   -1.1352   -0.3082 C   0  0  0  0  0  2  0  0  0  0  0  0
    0.6522   -3.3258   -0.4019 C   0  0  0  0  0  0  0  0  0  0  0  0
    1.3660   -4.1453   -0.5208 H   0  0  0  0  0  0  0  0  0  0  0  0
   -0.6811   -3.3272   -0.1196 C   0  0  0  0  0  0  0  0  0  0  0  0
   -1.3908   -4.1424    0.0438 H   0  0  0  0  0  0  0  0  0  0  0  0
   -2.4898   -1.6815    0.0430 C   0  0  0  0  0  0  0  0  0  0  0  0
   -3.0734   -1.5658    1.3179 C   0  0  0  0  0  0  0  0  0  0  0  0
   -4.4480   -1.2696    1.3849 C   0  0  0  0  0  0  0  0  0  0  0  0
   -4.9176   -1.1533    2.3751 H   0  0  0  0  0  0  0  0  0  0  0  0
   -5.2338   -1.1372    0.2278 C   0  0  0  0  0  0  0  0  0  0  0  0
   -4.6210   -1.3392   -1.0237 C   0  0  0  0  0  0  0  0  0  0  0  0
   -5.2260   -1.2615   -1.9411 H   0  0  0  0  0  0  0  0  0  0  0  0
   -3.2507   -1.6126   -1.1469 C   0  0  0  0  0  0  0  0  0  0  0  0
    2.3700   -1.6209   -0.9177 C   0  0  0  0  0  0  0  0  0  0  0  0
    2.3546   -0.5450   -1.2046 H   0  0  0  0  0  0  0  0  0  0  0  0
    2.6583   -2.1580   -1.8438 H   0  0  0  0  0  0  0  0  0  0  0  0
    3.3964   -1.8973    0.1616 C   0  0  0  0  0  0  0  0  0  0  0  0
    5.7272   -1.8561    0.6074 C   0  0  0  0  0  0  0  0  0  0  0  0
    5.6556   -2.8627    1.0702 H   0  0  0  0  0  0  0  0  0  0  0  0
    5.6018   -1.1161    1.4268 H   0  0  0  0  0  0  0  0  0  0  0  0
    7.0226   -1.6550   -0.1496 C   0  0  0  0  0  0  0  0  0  0  0  0
    7.1296   -2.4013   -0.9614 H   0  0  0  0  0  0  0  0  0  0  0  0
    7.8836   -1.7657    0.5389 H   0  0  0  0  0  0  0  0  0  0  0  0
    7.0668   -0.6441   -0.6009 H   0  0  0  0  0  0  0  0  0  0  0  0
   -2.2791   -1.8281    2.5698 C   0  0  0  0  0  0  0  0  0  0  0  0
   -2.7110   -1.2987    3.4411 H   0  0  0  0  0  0  0  0  0  0  0  0
   -1.2222   -1.5278    2.4568 H   0  0  0  0  0  0  0  0  0  0  0  0
   -2.2776   -2.9123    2.8155 H   0  0  0  0  0  0  0  0  0  0  0  0
   -6.6938   -0.7713    0.3161 C   0  0  0  0  0  0  0  0  0  0  0  0
   -7.1059   -0.9614    1.3264 H   0  0  0  0  0  0  0  0  0  0  0  0
   -7.3015   -1.3363   -0.4190 H   0  0  0  0  0  0  0  0  0  0  0  0
   -6.8415    0.3076    0.0946 H   0  0  0  0  0  0  0  0  0  0  0  0
   -2.6021   -1.8060   -2.4901 C   0  0  0  0  0  0  0  0  0  0  0  0
   -1.8784   -0.9860   -2.6811 H   0  0  0  0  0  0  0  0  0  0  0  0
   -3.3570   -1.7945   -3.2983 H   0  0  0  0  0  0  0  0  0  0  0  0
   -2.0471   -2.7656   -2.5455 H   0  0  0  0  0  0  0  0  0  0  0  0
  2 21  1  0  0  0  0
  2 22  1  0  0  0  0
  3 10  1  0  0  0  0
  4  6  1  0  0  0  0
  4  5  1  0  0  0  0
  5  3  1  0  0  0  0
  6  8  2  0  0  0  0
  7  6  1  0  0  0  0
  8  3  1  0  0  0  0
  8  9  1  0  0  0  0
 10 11  1  0  0  0  0
 11 12  2  0  0  0  0
 11 29  1  0  0  0  0
 12 13  1  0  0  0  0
 14 33  1  0  0  0  0
 14 12  1  0  0  0  0
 15 14  2  0  0  0  0
 16 15  1  0  0  0  0
 17 15  1  0  0  0  0
 17 10  2  0  0  0  0
 18  4  1  0  0  0  0
 18 21  1  0  0  0  0
 19 18  1  0  0  0  0
 20 18  1  0  0  0  0
 21  1  2  0  0  0  0
 22 23  1  0  0  0  0
 22 24  1  0  0  0  0
 25 27  1  0  0  0  0
 25 22  1  0  0  0  0
 26 25  1  0  0  0  0
 28 25  1  0  0  0  0
 29 32  1  0  0  0  0
 29 30  1  0  0  0  0
 31 29  1  0  0  0  0
 33 34  1  0  0  0  0
 35 33  1  0  0  0  0
 36 33  1  0  0  0  0
 37 17  1  0  0  0  0
 38 37  1  0  0  0  0
 39 37  1  0  0  0  0
 40 37  1  0  0  0  0
M  END
