3
 OpenBabel05122313113D

 38 38  0  0  1  0  0  0  0  0999 V2000
   -2.6161   -0.0001    1.6035 C   0  0  1  0  0  0  0  0  0  0  0  0
   -3.7044   -0.0006    1.3447 H   0  0  0  0  0  0  0  0  0  0  0  0
   -1.9469   -0.7151   -0.7904 C   0  0  2  0  0  3  0  0  0  0  0  0
   -1.9471    0.7146   -0.7905 C   0  0  1  0  0  3  0  0  0  0  0  0
   -1.6666    2.6398    1.2790 C   0  0  0  0  0  0  0  0  0  0  0  0
   -1.1101    2.5547    2.2377 H   0  0  0  0  0  0  0  0  0  0  0  0
   -1.0175    3.2181    0.5876 H   0  0  0  0  0  0  0  0  0  0  0  0
   -2.9769    3.4157    1.5342 C   0  0  0  0  0  0  0  0  0  0  0  0
   -2.7872    4.4269    1.9505 H   0  0  0  0  0  0  0  0  0  0  0  0
   -3.6335    2.8786    2.2494 H   0  0  0  0  0  0  0  0  0  0  0  0
   -3.5609    3.5514    0.6000 H   0  0  0  0  0  0  0  0  0  0  0  0
   -2.4009   -0.0000    3.1148 C   0  0  0  0  0  0  0  0  0  0  0  0
   -2.8398   -0.8926    3.6092 H   0  0  0  0  0  0  0  0  0  0  0  0
   -2.8402    0.8925    3.6091 H   0  0  0  0  0  0  0  0  0  0  0  0
   -1.3173    0.0002    3.3593 H   0  0  0  0  0  0  0  0  0  0  0  0
   -1.6655   -2.6398    1.2796 C   0  0  0  0  0  0  0  0  0  0  0  0
   -1.0165   -3.2182    0.5880 H   0  0  0  0  0  0  0  0  0  0  0  0
   -1.1085   -2.5541    2.2379 H   0  0  0  0  0  0  0  0  0  0  0  0
   -2.9754   -3.4160    1.5356 C   0  0  0  0  0  0  0  0  0  0  0  0
   -2.7851   -4.4270    1.9522 H   0  0  0  0  0  0  0  0  0  0  0  0
   -3.5598   -3.5522    0.6017 H   0  0  0  0  0  0  0  0  0  0  0  0
   -3.6318   -2.8789    2.2510 H   0  0  0  0  0  0  0  0  0  0  0  0
   -1.9822   -1.5937   -2.0123 C   0  0  0  0  0  0  0  0  0  0  0  0
   -1.3745   -2.5021   -1.8195 H   0  0  0  0  0  0  0  0  0  0  0  0
   -1.5179   -1.0808   -2.8823 H   0  0  0  0  0  0  0  0  0  0  0  0
   -3.4181   -2.0168   -2.3673 C   0  0  0  0  0  0  0  0  0  0  0  0
   -3.4292   -2.6829   -3.2530 H   0  0  0  0  0  0  0  0  0  0  0  0
   -4.0546   -1.1378   -2.5941 H   0  0  0  0  0  0  0  0  0  0  0  0
   -3.8935   -2.5610   -1.5261 H   0  0  0  0  0  0  0  0  0  0  0  0
   -1.9828    1.5929   -2.0126 C   0  0  0  0  0  0  0  0  0  0  0  0
   -1.5178    1.0803   -2.8823 H   0  0  0  0  0  0  0  0  0  0  0  0
   -1.3760    2.5019   -1.8197 H   0  0  0  0  0  0  0  0  0  0  0  0
   -3.4190    2.0146   -2.3681 C   0  0  0  0  0  0  0  0  0  0  0  0
   -4.0546    1.1349   -2.5948 H   0  0  0  0  0  0  0  0  0  0  0  0
   -3.4305    2.6805   -3.2540 H   0  0  0  0  0  0  0  0  0  0  0  0
   -3.8951    2.5586   -1.5272 H   0  0  0  0  0  0  0  0  0  0  0  0
   -1.9976    1.1910    0.7246 B   0  0  0  0  0  0  0  0  0  0  0  0
   -1.9971   -1.1913    0.7248 B   0  0  0  0  0  0  0  0  0  0  0  0
  1  2  1  6  0  0  0
  1 12  1  0  0  0  0
  3 23  1  6  0  0  0
  3 38  1  0  0  0  0
  4 30  1  6  0  0  0
  4  3  1  0  0  0  0
  4 37  1  0  0  0  0
  5  8  1  0  0  0  0
  5  6  1  0  0  0  0
  7  5  1  0  0  0  0
  8  9  1  0  0  0  0
  8 10  1  0  0  0  0
 11  8  1  0  0  0  0
 12 15  1  0  0  0  0
 12 14  1  0  0  0  0
 12 13  1  0  0  0  0
 16 19  1  0  0  0  0
 16 18  1  0  0  0  0
 17 16  1  0  0  0  0
 19 20  1  0  0  0  0
 19 22  1  0  0  0  0
 21 19  1  0  0  0  0
 23 24  1  0  0  0  0
 25 23  1  0  0  0  0
 26 23  1  0  0  0  0
 26 29  1  0  0  0  0
 27 26  1  0  0  0  0
 28 26  1  0  0  0  0
 30 32  1  0  0  0  0
 31 30  1  0  0  0  0
 33 30  1  0  0  0  0
 33 36  1  0  0  0  0
 34 33  1  0  0  0  0
 35 33  1  0  0  0  0
 37  5  1  0  0  0  0
 37  1  1  0  0  0  0
 38 16  1  0  0  0  0
 38  1  1  0  0  0  0
M  END
