3
 OpenBabel05122313113D

 53 58  0  0  0  0  0  0  0  0999 V2000
   -0.5806   -1.0867   -0.1314 N   0  0  0  0  0  0  0  0  0  0  0  0
   -0.6599    1.0961   -0.1316 N   0  0  0  0  0  0  0  0  0  0  0  0
    0.2108    0.0349   -0.1620 C   0  0  0  0  0  2  0  0  0  0  0  0
   -1.9903    0.6524   -0.1302 C   0  0  0  0  0  0  0  0  0  0  0  0
   -1.9390   -0.7429   -0.1273 C   0  0  0  0  0  0  0  0  0  0  0  0
   -3.1201   -1.5605   -0.1548 C   0  0  0  0  0  0  0  0  0  0  0  0
   -3.0948   -2.9798   -0.2273 C   0  0  0  0  0  0  0  0  0  0  0  0
   -2.1312   -3.4997   -0.2961 H   0  0  0  0  0  0  0  0  0  0  0  0
   -4.2748   -3.7160   -0.2227 C   0  0  0  0  0  0  0  0  0  0  0  0
   -4.2339   -4.8139   -0.2804 H   0  0  0  0  0  0  0  0  0  0  0  0
   -5.5176   -3.0524   -0.1497 C   0  0  0  0  0  0  0  0  0  0  0  0
   -6.4541   -3.6296   -0.1402 H   0  0  0  0  0  0  0  0  0  0  0  0
   -5.5624   -1.6619   -0.1043 C   0  0  0  0  0  0  0  0  0  0  0  0
   -6.5444   -1.1722   -0.0662 H   0  0  0  0  0  0  0  0  0  0  0  0
   -4.3843   -0.8696   -0.1167 C   0  0  0  0  0  0  0  0  0  0  0  0
   -4.4388    0.5960   -0.1282 C   0  0  0  0  0  0  0  0  0  0  0  0
   -5.6731    1.2976   -0.1331 C   0  0  0  0  0  0  0  0  0  0  0  0
   -6.6156    0.7358   -0.0916 H   0  0  0  0  0  0  0  0  0  0  0  0
   -5.7329    2.6865   -0.2013 C   0  0  0  0  0  0  0  0  0  0  0  0
   -6.7102    3.1918   -0.2050 H   0  0  0  0  0  0  0  0  0  0  0  0
   -4.5431    3.4401   -0.2821 C   0  0  0  0  0  0  0  0  0  0  0  0
   -4.5843    4.5368   -0.3594 H   0  0  0  0  0  0  0  0  0  0  0  0
   -3.3112    2.7948   -0.2702 C   0  0  0  0  0  0  0  0  0  0  0  0
   -2.3895    3.3848   -0.3464 H   0  0  0  0  0  0  0  0  0  0  0  0
   -3.2295    1.3790   -0.1725 C   0  0  0  0  0  0  0  0  0  0  0  0
    0.0113   -2.3917   -0.0180 C   0  0  0  0  0  0  0  0  0  0  0  0
   -0.0369   -3.0608    1.2274 C   0  0  0  0  0  0  0  0  0  0  0  0
    0.6093   -4.3102    1.3099 C   0  0  0  0  0  0  0  0  0  0  0  0
    0.5910   -4.8527    2.2680 H   0  0  0  0  0  0  0  0  0  0  0  0
    1.2811   -4.8612    0.2083 C   0  0  0  0  0  0  0  0  0  0  0  0
    1.7805   -5.8370    0.3073 H   0  0  0  0  0  0  0  0  0  0  0  0
    1.3251   -4.1669   -1.0108 C   0  0  0  0  0  0  0  0  0  0  0  0
    1.8619   -4.5867   -1.8743 H   0  0  0  0  0  0  0  0  0  0  0  0
    0.6912   -2.9219   -1.1253 C   0  0  0  0  0  0  0  0  0  0  0  0
    0.7381   -2.3295   -2.0515 H   0  0  0  0  0  0  0  0  0  0  0  0
   -0.7448   -2.4606    2.4127 C   0  0  0  0  0  0  0  0  0  0  0  0
   -1.8481   -2.5273    2.3025 H   0  0  0  0  0  0  0  0  0  0  0  0
   -0.5023   -1.3840    2.5272 H   0  0  0  0  0  0  0  0  0  0  0  0
   -0.4658   -2.9817    3.3478 H   0  0  0  0  0  0  0  0  0  0  0  0
   -0.1723    2.4437   -0.0253 C   0  0  0  0  0  0  0  0  0  0  0  0
   -0.3069    3.1295    1.2051 C   0  0  0  0  0  0  0  0  0  0  0  0
    0.2312    4.4296    1.2769 C   0  0  0  0  0  0  0  0  0  0  0  0
    0.1432    4.9865    2.2228 H   0  0  0  0  0  0  0  0  0  0  0  0
    0.8857    5.0131    0.1814 C   0  0  0  0  0  0  0  0  0  0  0  0
    1.2996    6.0288    0.2721 H   0  0  0  0  0  0  0  0  0  0  0  0
    1.0237    4.2996   -1.0191 C   0  0  0  0  0  0  0  0  0  0  0  0
    1.5502    4.7442   -1.8764 H   0  0  0  0  0  0  0  0  0  0  0  0
    0.4963    3.0049   -1.1239 C   0  0  0  0  0  0  0  0  0  0  0  0
    0.6174    2.4003   -2.0357 H   0  0  0  0  0  0  0  0  0  0  0  0
   -0.9889    2.4952    2.3879 C   0  0  0  0  0  0  0  0  0  0  0  0
   -0.7695    3.0527    3.3179 H   0  0  0  0  0  0  0  0  0  0  0  0
   -0.6647    1.4432    2.5269 H   0  0  0  0  0  0  0  0  0  0  0  0
   -2.0916    2.4725    2.2573 H   0  0  0  0  0  0  0  0  0  0  0  0
  1  5  1  0  0  0  0
  1 26  1  0  0  0  0
  2  4  1  0  0  0  0
  2 40  1  0  0  0  0
  3  2  1  0  0  0  0
  3  1  1  0  0  0  0
  4  5  1  0  0  0  0
  6  5  2  0  0  0  0
  6 15  1  0  0  0  0
  7  9  2  0  0  0  0
  7  6  1  0  0  0  0
  8  7  1  0  0  0  0
  9 11  1  0  0  0  0
 10  9  1  0  0  0  0
 11 12  1  0  0  0  0
 11 13  2  0  0  0  0
 13 14  1  0  0  0  0
 15 13  1  0  0  0  0
 16 15  2  0  0  0  0
 17 16  1  0  0  0  0
 17 18  1  0  0  0  0
 19 17  2  0  0  0  0
 20 19  1  0  0  0  0
 21 23  2  0  0  0  0
 21 19  1  0  0  0  0
 22 21  1  0  0  0  0
 23 25  1  0  0  0  0
 24 23  1  0  0  0  0
 25  4  2  0  0  0  0
 25 16  1  0  0  0  0
 26 27  1  0  0  0  0
 27 28  2  0  0  0  0
 27 36  1  0  0  0  0
 28 29  1  0  0  0  0
 30 31  1  0  0  0  0
 30 28  1  0  0  0  0
 32 30  2  0  0  0  0
 33 32  1  0  0  0  0
 34 32  1  0  0  0  0
 34 26  2  0  0  0  0
 35 34  1  0  0  0  0
 36 38  1  0  0  0  0
 36 39  1  0  0  0  0
 37 36  1  0  0  0  0
 40 41  1  0  0  0  0
 41 42  2  0  0  0  0
 41 50  1  0  0  0  0
 42 43  1  0  0  0  0
 44 45  1  0  0  0  0
 44 42  1  0  0  0  0
 46 44  2  0  0  0  0
 47 46  1  0  0  0  0
 48 46  1  0  0  0  0
 48 40  2  0  0  0  0
 49 48  1  0  0  0  0
 50 52  1  0  0  0  0
 50 51  1  0  0  0  0
 53 50  1  0  0  0  0
M  END
