2
 OpenBabel05122313113D

 20 19  0  0  1  0  0  0  0  0999 V2000
   -0.0627    1.0020    2.1243 C   0  0  0  0  0  3  0  0  0  0  0  0
   -0.7246    2.1019    1.4727 C   0  0  0  0  0  3  0  0  0  0  0  0
    0.0968    2.8775    0.5842 C   0  0  1  0  0  3  0  0  0  0  0  0
    1.4550    2.4544    0.4801 C   0  0  0  0  0  3  0  0  0  0  0  0
   -0.5179    3.8629   -0.3920 C   0  0  0  0  0  0  0  0  0  0  0  0
   -1.5584    3.1104   -1.2275 C   0  0  0  0  0  0  0  0  0  0  0  0
   -1.0526    1.7121   -1.5465 C   0  0  0  0  0  3  0  0  0  0  0  0
    0.2830    1.4251   -1.9537 C   0  0  0  0  0  3  0  0  0  0  0  0
   -0.6754    0.3183    2.7385 H   0  0  0  0  0  0  0  0  0  0  0  0
    0.9240    1.1807    2.5856 H   0  0  0  0  0  0  0  0  0  0  0  0
   -1.8016    2.3180    1.5735 H   0  0  0  0  0  0  0  0  0  0  0  0
    2.0226    2.2068    1.3863 H   0  0  0  0  0  0  0  0  0  0  0  0
    2.0675    2.9102   -0.3157 H   0  0  0  0  0  0  0  0  0  0  0  0
   -0.9621    4.7327    0.1372 H   0  0  0  0  0  0  0  0  0  0  0  0
    0.2841    4.2697   -1.0399 H   0  0  0  0  0  0  0  0  0  0  0  0
   -1.8224    3.6701   -2.1560 H   0  0  0  0  0  0  0  0  0  0  0  0
   -2.5060    3.0266   -0.6519 H   0  0  0  0  0  0  0  0  0  0  0  0
   -1.8429    1.0688   -1.9682 H   0  0  0  0  0  0  0  0  0  0  0  0
    1.0011    2.2528   -2.0799 H   0  0  0  0  0  0  0  0  0  0  0  0
    0.4509    0.6219   -2.6903 H   0  0  0  0  0  0  0  0  0  0  0  0
  1 10  1  0  0  0  0
  1  9  1  0  0  0  0
  2 11  1  0  0  0  0
  2  1  1  0  0  0  0
  3  4  1  6  0  0  0
  3  2  1  0  0  0  0
  4 12  1  0  0  0  0
  5 14  1  0  0  0  0
  5  3  1  0  0  0  0
  6 17  1  0  0  0  0
  6  5  1  0  0  0  0
  7  6  1  0  0  0  0
  8  7  1  0  0  0  0
 13  4  1  0  0  0  0
 15  5  1  0  0  0  0
 16  6  1  0  0  0  0
 18  7  1  0  0  0  0
 19  8  1  0  0  0  0
 20  8  1  0  0  0  0
M  END
