2
 OpenBabel05122313113D

 31 32  0  0  0  0  0  0  0  0999 V2000
    0.5186   -0.5679   -2.4759 O   0  0  0  0  0  0  0  0  0  0  0  0
   -0.3108    0.3045   -0.4075 C   0  0  0  0  0  2  0  0  0  0  0  0
    0.7245   -0.3446   -1.2773 C   0  0  0  0  0  0  0  0  0  0  0  0
   -0.1390    1.7584   -0.2944 C   0  0  0  0  0  0  0  0  0  0  0  0
    0.6555    2.4590   -1.2465 C   0  0  0  0  0  0  0  0  0  0  0  0
    0.8249    3.8447   -1.1816 C   0  0  0  0  0  0  0  0  0  0  0  0
    0.2338    4.6061   -0.1540 C   0  0  0  0  0  0  0  0  0  0  0  0
   -0.5441    3.9181    0.8054 C   0  0  0  0  0  0  0  0  0  0  0  0
   -0.7355    2.5395    0.7347 C   0  0  0  0  0  0  0  0  0  0  0  0
    0.4085    6.0988   -0.0761 C   0  0  0  0  0  0  0  0  0  0  0  0
    2.0354   -0.7113   -0.6405 C   0  0  0  0  0  0  0  0  0  0  0  0
    2.3366   -0.4407    0.7110 C   0  0  0  0  0  0  0  0  0  0  0  0
    3.5801   -0.8014    1.2415 C   0  0  0  0  0  0  0  0  0  0  0  0
    4.5564   -1.4415    0.4476 C   0  0  0  0  0  0  0  0  0  0  0  0
    4.2432   -1.7114   -0.9028 C   0  0  0  0  0  0  0  0  0  0  0  0
    3.0050   -1.3495   -1.4408 C   0  0  0  0  0  0  0  0  0  0  0  0
    5.9037   -1.7994    1.0189 C   0  0  0  0  0  0  0  0  0  0  0  0
    1.1236    1.9022   -2.0709 H   0  0  0  0  0  0  0  0  0  0  0  0
    1.4357    4.3509   -1.9459 H   0  0  0  0  0  0  0  0  0  0  0  0
   -1.0116    4.4840    1.6269 H   0  0  0  0  0  0  0  0  0  0  0  0
   -1.3418    2.0512    1.5071 H   0  0  0  0  0  0  0  0  0  0  0  0
   -0.5548    6.6215   -0.2582 H   0  0  0  0  0  0  0  0  0  0  0  0
    1.1384    6.4674   -0.8221 H   0  0  0  0  0  0  0  0  0  0  0  0
    0.7535    6.4126    0.9308 H   0  0  0  0  0  0  0  0  0  0  0  0
    1.5905    0.0491    1.3531 H   0  0  0  0  0  0  0  0  0  0  0  0
    3.8010   -0.5864    2.2990 H   0  0  0  0  0  0  0  0  0  0  0  0
    4.9892   -2.2153   -1.5381 H   0  0  0  0  0  0  0  0  0  0  0  0
    2.7496   -1.5508   -2.4923 H   0  0  0  0  0  0  0  0  0  0  0  0
    6.3703   -2.6421    0.4721 H   0  0  0  0  0  0  0  0  0  0  0  0
    5.8344   -2.0731    2.0904 H   0  0  0  0  0  0  0  0  0  0  0  0
    6.6023   -0.9375    0.9496 H   0  0  0  0  0  0  0  0  0  0  0  0
  1  3  2  0  0  0  0
  2  4  1  0  0  0  0
  3 11  1  0  0  0  0
  3  2  1  0  0  0  0
  4  9  1  0  0  0  0
  5  6  1  0  0  0  0
  5  4  2  0  0  0  0
  6  7  2  0  0  0  0
  7 10  1  0  0  0  0
  7  8  1  0  0  0  0
  8 20  1  0  0  0  0
  9  8  2  0  0  0  0
  9 21  1  0  0  0  0
 10 24  1  0  0  0  0
 11 12  1  0  0  0  0
 12 13  2  0  0  0  0
 12 25  1  0  0  0  0
 13 26  1  0  0  0  0
 14 17  1  0  0  0  0
 14 13  1  0  0  0  0
 15 14  2  0  0  0  0
 16 15  1  0  0  0  0
 16 11  2  0  0  0  0
 17 30  1  0  0  0  0
 18  5  1  0  0  0  0
 19  6  1  0  0  0  0
 22 10  1  0  0  0  0
 23 10  1  0  0  0  0
 27 15  1  0  0  0  0
 28 16  1  0  0  0  0
 29 17  1  0  0  0  0
 31 17  1  0  0  0  0
M  END
