3
 OpenBabel05122313113D

 41 42  0  0  1  0  0  0  0  0999 V2000
   -1.0170    0.3105   -0.0188 P   0  0  0  0  0  0  0  0  0  0  0  0
   -0.5516   -2.5813   -1.2703 P   0  0  0  0  0  4  0  0  0  0  0  0
   -0.4336   -0.7858   -1.3561 C   0  0  1  0  0  3  0  0  0  0  0  0
   -0.7088   -0.3014   -2.7868 C   0  0  0  0  0  0  0  0  0  0  0  0
   -2.4096   -0.3645    0.9801 C   0  0  0  0  0  0  0  0  0  0  0  0
   -3.3743   -1.2229    0.4127 C   0  0  0  0  0  0  0  0  0  0  0  0
   -4.4686   -1.6683    1.1690 C   0  0  0  0  0  0  0  0  0  0  0  0
   -4.6198   -1.2491    2.5002 C   0  0  0  0  0  0  0  0  0  0  0  0
   -3.6817   -0.3710    3.0651 C   0  0  0  0  0  0  0  0  0  0  0  0
   -2.5857    0.0724    2.3097 C   0  0  0  0  0  0  0  0  0  0  0  0
   -1.7990    1.8065   -0.7572 C   0  0  0  0  0  0  0  0  0  0  0  0
   -1.0245    2.9805   -0.8459 C   0  0  0  0  0  0  0  0  0  0  0  0
   -1.5618    4.1433   -1.4188 C   0  0  0  0  0  0  0  0  0  0  0  0
   -2.8755    4.1366   -1.9130 C   0  0  0  0  0  0  0  0  0  0  0  0
   -3.6560    2.9717   -1.8186 C   0  0  0  0  0  0  0  0  0  0  0  0
   -3.1270    1.8127   -1.2333 C   0  0  0  0  0  0  0  0  0  0  0  0
   -0.8571   -3.2790    0.3869 C   0  0  0  0  0  0  0  0  0  0  0  0
   -1.8554   -3.2675   -2.3714 C   0  0  0  0  0  0  0  0  0  0  0  0
    0.9671   -3.3323   -1.9472 C   0  0  0  0  0  0  0  0  0  0  0  0
   -0.4708    0.7743   -2.8871 H   0  0  0  0  0  0  0  0  0  0  0  0
   -1.7735   -0.4221   -3.0810 H   0  0  0  0  0  0  0  0  0  0  0  0
   -0.0916   -0.8401   -3.5364 H   0  0  0  0  0  0  0  0  0  0  0  0
   -3.2776   -1.5346   -0.6369 H   0  0  0  0  0  0  0  0  0  0  0  0
   -5.2130   -2.3386    0.7133 H   0  0  0  0  0  0  0  0  0  0  0  0
   -5.4773   -1.5979    3.0944 H   0  0  0  0  0  0  0  0  0  0  0  0
   -3.8053   -0.0235    4.1016 H   0  0  0  0  0  0  0  0  0  0  0  0
   -1.8724    0.7775    2.7593 H   0  0  0  0  0  0  0  0  0  0  0  0
    0.0047    2.9683   -0.4553 H   0  0  0  0  0  0  0  0  0  0  0  0
   -0.9546    5.0592   -1.4759 H   0  0  0  0  0  0  0  0  0  0  0  0
   -3.2981    5.0459   -2.3661 H   0  0  0  0  0  0  0  0  0  0  0  0
   -4.6888    2.9688   -2.1979 H   0  0  0  0  0  0  0  0  0  0  0  0
   -3.7556    0.9147   -1.1403 H   0  0  0  0  0  0  0  0  0  0  0  0
   -0.1002   -4.0577    0.5966 H   0  0  0  0  0  0  0  0  0  0  0  0
   -1.8762   -3.7040    0.4277 H   0  0  0  0  0  0  0  0  0  0  0  0
   -0.7544   -2.4873    1.1496 H   0  0  0  0  0  0  0  0  0  0  0  0
   -1.8713   -4.3707   -2.2734 H   0  0  0  0  0  0  0  0  0  0  0  0
   -1.6333   -3.0066   -3.4235 H   0  0  0  0  0  0  0  0  0  0  0  0
   -2.8538   -2.8708   -2.1083 H   0  0  0  0  0  0  0  0  0  0  0  0
    0.7855   -4.4084   -2.1366 H   0  0  0  0  0  0  0  0  0  0  0  0
    1.7926   -3.2112   -1.2245 H   0  0  0  0  0  0  0  0  0  0  0  0
    1.2292   -2.8338   -2.8998 H   0  0  0  0  0  0  0  0  0  0  0  0
  1  5  1  0  0  0  0
  2 17  1  0  0  0  0
  3  4  1  6  0  0  0
  3  2  1  0  0  0  0
  3  1  1  0  0  0  0
  5 10  1  0  0  0  0
  6  5  2  0  0  0  0
  6  7  1  0  0  0  0
  7  8  2  0  0  0  0
  8  9  1  0  0  0  0
  8 25  1  0  0  0  0
  9 26  1  0  0  0  0
 10 27  1  0  0  0  0
 10  9  2  0  0  0  0
 11  1  1  0  0  0  0
 12 11  1  0  0  0  0
 12 28  1  0  0  0  0
 13 12  2  0  0  0  0
 14 15  2  0  0  0  0
 14 13  1  0  0  0  0
 15 16  1  0  0  0  0
 16 32  1  0  0  0  0
 16 11  2  0  0  0  0
 17 34  1  0  0  0  0
 17 33  1  0  0  0  0
 17 35  1  0  0  0  0
 18 36  1  0  0  0  0
 18 38  1  0  0  0  0
 18  2  1  0  0  0  0
 19  2  1  0  0  0  0
 19 40  1  0  0  0  0
 20  4  1  0  0  0  0
 21  4  1  0  0  0  0
 22  4  1  0  0  0  0
 23  6  1  0  0  0  0
 24  7  1  0  0  0  0
 29 13  1  0  0  0  0
 30 14  1  0  0  0  0
 31 15  1  0  0  0  0
 37 18  1  0  0  0  0
 39 19  1  0  0  0  0
 41 19  1  0  0  0  0
M  END
