5
 OpenBabel05122313113D

 62 64  0  0  0  0  0  0  0  0999 V2000
    2.0967   -2.1631    0.7432 O   0  0  0  0  0  0  0  0  0  0  0  0
    2.4344   -2.4261   -1.5001 O   0  0  0  0  0  0  0  0  0  0  0  0
   -1.2831   -1.1722    0.2921 N   0  0  0  0  0  0  0  0  0  0  0  0
    0.6930   -0.2816    0.2474 N   0  0  0  0  0  0  0  0  0  0  0  0
   -0.6433    0.0296    0.1113 C   0  0  0  0  0  2  0  0  0  0  0  0
    0.8608   -1.6430    0.5110 C   0  0  0  0  0  0  0  0  0  0  0  0
   -0.3815   -2.2105    0.5384 C   0  0  0  0  0  0  0  0  0  0  0  0
   -0.6996   -3.2411    0.7107 H   0  0  0  0  0  0  0  0  0  0  0  0
   -2.7084   -1.3619    0.2854 C   0  0  0  0  0  0  0  0  0  0  0  0
   -3.4419   -0.9864    1.4311 C   0  0  0  0  0  0  0  0  0  0  0  0
   -4.8323   -1.1904    1.4148 C   0  0  0  0  0  0  0  0  0  0  0  0
   -5.4213   -0.8966    2.2986 H   0  0  0  0  0  0  0  0  0  0  0  0
   -5.4842   -1.7676    0.3094 C   0  0  0  0  0  0  0  0  0  0  0  0
   -4.7054   -2.1631   -0.7936 C   0  0  0  0  0  0  0  0  0  0  0  0
   -5.1972   -2.6289   -1.6627 H   0  0  0  0  0  0  0  0  0  0  0  0
   -3.3130   -1.9746   -0.8342 C   0  0  0  0  0  0  0  0  0  0  0  0
   -2.4989   -2.3849   -2.0308 C   0  0  0  0  0  0  0  0  0  0  0  0
   -1.7092   -3.1198   -1.7710 H   0  0  0  0  0  0  0  0  0  0  0  0
   -1.9969   -1.4879   -2.4521 H   0  0  0  0  0  0  0  0  0  0  0  0
   -3.1415   -2.8322   -2.8121 H   0  0  0  0  0  0  0  0  0  0  0  0
   -2.7482   -0.3977    2.6313 C   0  0  0  0  0  0  0  0  0  0  0  0
   -1.9395   -1.0629    3.0005 H   0  0  0  0  0  0  0  0  0  0  0  0
   -3.4600   -0.2249    3.4603 H   0  0  0  0  0  0  0  0  0  0  0  0
   -2.2724    0.5673    2.3654 H   0  0  0  0  0  0  0  0  0  0  0  0
   -6.9826   -1.9373    0.2957 C   0  0  0  0  0  0  0  0  0  0  0  0
   -7.4723   -1.0728   -0.2023 H   0  0  0  0  0  0  0  0  0  0  0  0
   -7.3978   -2.0030    1.3206 H   0  0  0  0  0  0  0  0  0  0  0  0
   -7.2865   -2.8457   -0.2614 H   0  0  0  0  0  0  0  0  0  0  0  0
    1.7775    0.6516    0.1552 C   0  0  0  0  0  0  0  0  0  0  0  0
    2.1892    1.1078   -1.1193 C   0  0  0  0  0  0  0  0  0  0  0  0
    3.2558    2.0241   -1.1571 C   0  0  0  0  0  0  0  0  0  0  0  0
    3.5922    2.3943   -2.1388 H   0  0  0  0  0  0  0  0  0  0  0  0
    3.8968    2.4842    0.0102 C   0  0  0  0  0  0  0  0  0  0  0  0
    3.4546    1.9957    1.2533 C   0  0  0  0  0  0  0  0  0  0  0  0
    3.9449    2.3424    2.1770 H   0  0  0  0  0  0  0  0  0  0  0  0
    2.3966    1.0741    1.3511 C   0  0  0  0  0  0  0  0  0  0  0  0
    1.9452    0.5430    2.6867 C   0  0  0  0  0  0  0  0  0  0  0  0
    0.8396    0.5030    2.7570 H   0  0  0  0  0  0  0  0  0  0  0  0
    2.3292    1.1667    3.5158 H   0  0  0  0  0  0  0  0  0  0  0  0
    2.3063   -0.4955    2.8456 H   0  0  0  0  0  0  0  0  0  0  0  0
    1.5018    0.6483   -2.3730 C   0  0  0  0  0  0  0  0  0  0  0  0
    1.4739   -0.4586   -2.4263 H   0  0  0  0  0  0  0  0  0  0  0  0
    2.0204    1.0334   -3.2709 H   0  0  0  0  0  0  0  0  0  0  0  0
    0.4434    0.9916   -2.3973 H   0  0  0  0  0  0  0  0  0  0  0  0
    5.0123    3.4954   -0.0766 C   0  0  0  0  0  0  0  0  0  0  0  0
    5.5856    3.5567    0.8685 H   0  0  0  0  0  0  0  0  0  0  0  0
    4.6122    4.5096   -0.2897 H   0  0  0  0  0  0  0  0  0  0  0  0
    5.7186    3.2514   -0.8956 H   0  0  0  0  0  0  0  0  0  0  0  0
    2.8869   -2.4544   -0.3827 C   0  0  0  0  0  0  0  0  0  0  0  0
    4.3233   -2.7591    0.0301 C   0  0  0  0  0  0  0  0  0  0  0  0
    4.3397   -3.8594    1.1110 C   0  0  0  0  0  0  0  0  0  0  0  0
    3.7780   -3.5485    2.0123 H   0  0  0  0  0  0  0  0  0  0  0  0
    5.3870   -4.0693    1.4082 H   0  0  0  0  0  0  0  0  0  0  0  0
    3.8978   -4.8032    0.7326 H   0  0  0  0  0  0  0  0  0  0  0  0
    4.9308   -1.4521    0.5926 C   0  0  0  0  0  0  0  0  0  0  0  0
    4.8622   -0.6238   -0.1410 H   0  0  0  0  0  0  0  0  0  0  0  0
    6.0007   -1.6185    0.8316 H   0  0  0  0  0  0  0  0  0  0  0  0
    4.4128   -1.1299    1.5155 H   0  0  0  0  0  0  0  0  0  0  0  0
    5.0955   -3.2116   -1.2178 C   0  0  0  0  0  0  0  0  0  0  0  0
    4.6545   -4.1299   -1.6526 H   0  0  0  0  0  0  0  0  0  0  0  0
    6.1498   -3.4224   -0.9501 H   0  0  0  0  0  0  0  0  0  0  0  0
    5.0799   -2.4299   -2.0013 H   0  0  0  0  0  0  0  0  0  0  0  0
  2 49  2  0  0  0  0
  3  7  1  0  0  0  0
  4  6  1  0  0  0  0
  5  4  1  0  0  0  0
  5  3  1  0  0  0  0
  6  7  2  0  0  0  0
  6  1  1  0  0  0  0
  7  8  1  0  0  0  0
  9  3  1  0  0  0  0
  9 10  1  0  0  0  0
 10 21  1  0  0  0  0
 11 10  2  0  0  0  0
 11 12  1  0  0  0  0
 13 11  1  0  0  0  0
 14 13  2  0  0  0  0
 15 14  1  0  0  0  0
 16 14  1  0  0  0  0
 16  9  2  0  0  0  0
 17 18  1  0  0  0  0
 17 16  1  0  0  0  0
 19 17  1  0  0  0  0
 20 17  1  0  0  0  0
 21 22  1  0  0  0  0
 21 23  1  0  0  0  0
 24 21  1  0  0  0  0
 25 13  1  0  0  0  0
 25 27  1  0  0  0  0
 26 25  1  0  0  0  0
 28 25  1  0  0  0  0
 29  4  1  0  0  0  0
 29 36  1  0  0  0  0
 30 29  2  0  0  0  0
 31 30  1  0  0  0  0
 31 33  2  0  0  0  0
 32 31  1  0  0  0  0
 33 34  1  0  0  0  0
 34 36  2  0  0  0  0
 34 35  1  0  0  0  0
 36 37  1  0  0  0  0
 37 38  1  0  0  0  0
 37 40  1  0  0  0  0
 37 39  1  0  0  0  0
 41 30  1  0  0  0  0
 42 41  1  0  0  0  0
 43 41  1  0  0  0  0
 44 41  1  0  0  0  0
 45 33  1  0  0  0  0
 45 46  1  0  0  0  0
 47 45  1  0  0  0  0
 48 45  1  0  0  0  0
 49 50  1  0  0  0  0
 49  1  1  0  0  0  0
 50 55  1  0  0  0  0
 50 51  1  0  0  0  0
 51 53  1  0  0  0  0
 51 52  1  0  0  0  0
 54 51  1  0  0  0  0
 55 57  1  0  0  0  0
 55 58  1  0  0  0  0
 56 55  1  0  0  0  0
 59 61  1  0  0  0  0
 59 50  1  0  0  0  0
 60 59  1  0  0  0  0
 62 59  1  0  0  0  0
M  END
