1
 OpenBabel05122313113D

 14 14  0  0  0  0  0  0  0  0999 V2000
   -2.5042   -0.3289   -0.0023 C   0  0  0  0  0  3  0  0  0  0  0  0
   -2.7356    2.0373   -0.0030 F   0  0  0  0  0  0  0  0  0  0  0  0
   -3.3260    0.8055   -0.0008 C   0  0  0  0  0  0  0  0  0  0  0  0
   -4.7352    0.7870    0.0021 C   0  0  0  0  0  0  0  0  0  0  0  0
   -5.3464   -0.4808    0.0035 C   0  0  0  0  0  0  0  0  0  0  0  0
   -6.4460   -0.5427    0.0058 H   0  0  0  0  0  0  0  0  0  0  0  0
   -4.5846   -1.6594    0.0019 C   0  0  0  0  0  0  0  0  0  0  0  0
   -5.0556   -2.6527    0.0029 H   0  0  0  0  0  0  0  0  0  0  0  0
   -2.4675   -2.7069   -0.0026 F   0  0  0  0  0  0  0  0  0  0  0  0
   -3.1884   -1.5544   -0.0010 C   0  0  0  0  0  0  0  0  0  0  0  0
   -5.5162    2.0741    0.0032 C   0  0  0  0  0  0  0  0  0  0  0  0
   -5.2740    2.6961    0.8902 H   0  0  0  0  0  0  0  0  0  0  0  0
   -6.6060    1.8790    0.0067 H   0  0  0  0  0  0  0  0  0  0  0  0
   -5.2795    2.6942   -0.8867 H   0  0  0  0  0  0  0  0  0  0  0  0
  1 10  2  0  0  0  0
  1  3  1  0  0  0  0
  2  3  1  0  0  0  0
  3  4  2  0  0  0  0
  4 11  1  0  0  0  0
  4  5  1  0  0  0  0
  5  6  1  0  0  0  0
  7  8  1  0  0  0  0
  7  5  2  0  0  0  0
  9 10  1  0  0  0  0
 10  7  1  0  0  0  0
 11 13  1  0  0  0  0
 11 12  1  0  0  0  0
 14 11  1  0  0  0  0
M  END
