3
 OpenBabel05122313113D

 19 19  0  0  1  0  0  0  0  0999 V2000
    3.3625    0.5830   -1.2451 O   0  0  0  0  0  0  0  0  0  0  0  0
    1.8704   -0.9760    0.8136 N   0  0  0  0  0  0  0  0  0  0  0  0
    0.8778   -1.0636   -0.0708 C   0  0  0  0  0  2  0  0  0  0  0  0
    1.4342   -1.7656   -1.2976 C   0  0  0  0  0  0  0  0  0  0  0  0
    2.8310   -2.2701   -0.8900 C   0  0  0  0  0  0  0  0  0  0  0  0
    3.2052   -1.3457    0.2758 C   0  0  1  0  0  0  0  0  0  0  0  0
    1.7954   -0.3733    2.1327 C   0  0  0  0  0  0  0  0  0  0  0  0
    3.9679   -0.0763   -0.1633 C   0  0  0  0  0  0  0  0  0  0  0  0
    2.5783    1.0865   -0.9116 H   0  0  0  0  0  0  0  0  0  0  0  0
    0.7478   -2.5647   -1.6397 H   0  0  0  0  0  0  0  0  0  0  0  0
    1.5023   -1.0111   -2.1074 H   0  0  0  0  0  0  0  0  0  0  0  0
    2.7795   -3.3201   -0.5391 H   0  0  0  0  0  0  0  0  0  0  0  0
    3.5649   -2.2148   -1.7156 H   0  0  0  0  0  0  0  0  0  0  0  0
    3.7851   -1.8574    1.0740 H   0  0  0  0  0  0  0  0  0  0  0  0
    2.4233   -0.9567    2.8343 H   0  0  0  0  0  0  0  0  0  0  0  0
    0.7448   -0.3684    2.4687 H   0  0  0  0  0  0  0  0  0  0  0  0
    2.1451    0.6794    2.1064 H   0  0  0  0  0  0  0  0  0  0  0  0
    4.9817   -0.3970   -0.4882 H   0  0  0  0  0  0  0  0  0  0  0  0
    4.1146    0.5903    0.7211 H   0  0  0  0  0  0  0  0  0  0  0  0
  1  9  1  0  0  0  0
  1  8  1  0  0  0  0
  2  7  1  0  0  0  0
  3  2  1  0  0  0  0
  4  5  1  0  0  0  0
  4  3  1  0  0  0  0
  5 12  1  0  0  0  0
  5  6  1  0  0  0  0
  6  2  1  0  0  0  0
  6 14  1  1  0  0  0
  7 16  1  0  0  0  0
  7 15  1  0  0  0  0
  8  6  1  0  0  0  0
  8 19  1  0  0  0  0
 10  4  1  0  0  0  0
 11  4  1  0  0  0  0
 13  5  1  0  0  0  0
 17  7  1  0  0  0  0
 18  8  1  0  0  0  0
M  END
