9
 OpenBabel05122313113D

 24 25  0  0  0  0  0  0  0  0999 V2000
    2.1668    0.8713    0.0368 S   0  0  0  0  0  0  0  0  0  0  0  0
   -0.3480    1.8497    0.1018 O   0  0  0  0  0  0  0  0  0  0  0  0
    5.1571    0.8426    0.0181 O   0  0  0  0  0  0  0  0  0  0  0  0
    1.0450   -1.4839    0.0037 C   0  0  0  0  0  0  0  0  0  0  0  0
    0.3037   -2.2898   -0.0000 H   0  0  0  0  0  0  0  0  0  0  0  0
    3.1856   -0.5364    0.0071 C   0  0  0  0  0  0  0  0  0  0  0  0
    5.6441   -1.3577   -0.0292 C   0  0  0  0  0  0  0  0  0  0  0  0
    5.5240   -2.4458   -0.0500 H   0  0  0  0  0  0  0  0  0  0  0  0
   -0.5913    0.5358    0.0495 C   0  0  0  0  0  2  0  0  0  0  0  0
    0.6987   -0.1227    0.0251 C   0  0  0  0  0  0  0  0  0  0  0  0
    2.4298   -1.7196   -0.0057 C   0  0  0  0  0  0  0  0  0  0  0  0
    2.8816   -2.7201   -0.0213 H   0  0  0  0  0  0  0  0  0  0  0  0
    4.6179   -0.4198   -0.0023 C   0  0  0  0  0  0  0  0  0  0  0  0
   -1.3444    2.8829    0.1969 C   0  0  0  0  0  0  0  0  0  0  0  0
   -1.7181    2.9026    1.2409 H   0  0  0  0  0  0  0  0  0  0  0  0
   -2.1941    2.6371   -0.4670 H   0  0  0  0  0  0  0  0  0  0  0  0
    6.5103    0.7113    0.0044 C   0  0  0  0  0  0  0  0  0  0  0  0
    7.0809    1.6453    0.0179 H   0  0  0  0  0  0  0  0  0  0  0  0
    6.8663   -0.6205   -0.0246 C   0  0  0  0  0  0  0  0  0  0  0  0
    7.8848   -1.0230   -0.0410 H   0  0  0  0  0  0  0  0  0  0  0  0
   -0.6840    4.1917   -0.1872 C   0  0  0  0  0  0  0  0  0  0  0  0
   -1.4150    5.0188   -0.0952 H   0  0  0  0  0  0  0  0  0  0  0  0
   -0.3234    4.1611   -1.2341 H   0  0  0  0  0  0  0  0  0  0  0  0
    0.1772    4.4132    0.4734 H   0  0  0  0  0  0  0  0  0  0  0  0
  2 14  1  0  0  0  0
  4 10  2  0  0  0  0
  5  4  1  0  0  0  0
  6  1  1  0  0  0  0
  7 19  1  0  0  0  0
  7 13  2  0  0  0  0
  8  7  1  0  0  0  0
  9  2  1  0  0  0  0
 10  1  1  0  0  0  0
 10  9  1  0  0  0  0
 11  4  1  0  0  0  0
 11  6  2  0  0  0  0
 12 11  1  0  0  0  0
 13  6  1  0  0  0  0
 13  3  1  0  0  0  0
 14 15  1  0  0  0  0
 16 14  1  0  0  0  0
 17 18  1  0  0  0  0
 17  3  1  0  0  0  0
 19 17  2  0  0  0  0
 20 19  1  0  0  0  0
 21 22  1  0  0  0  0
 21 14  1  0  0  0  0
 21 24  1  0  0  0  0
 23 21  1  0  0  0  0
M  END
