8
 OpenBabel05122313113D

 41 43  0  0  1  0  0  0  0  0999 V2000
   -1.6354    2.4038   -0.0093 O   0  0  0  0  0  0  0  0  0  0  0  0
   -2.8413    0.7334    1.8119 O   0  0  0  0  0  0  0  0  0  0  0  0
    2.7965   -1.7856    0.1404 O   0  0  0  0  0  0  0  0  0  0  0  0
    0.3642    1.0709    0.0107 C   0  0  0  0  0  0  0  0  0  0  0  0
   -0.9943    1.2894    0.4393 C   0  0  0  0  0  0  0  0  0  0  0  0
   -1.5981    0.4010    1.3944 C   0  0  0  0  0  0  0  0  0  0  0  0
   -0.8901   -0.7574    1.8330 C   0  0  0  0  0  0  0  0  0  0  0  0
    0.4264   -0.9904    1.3632 C   0  0  0  0  0  3  0  0  0  0  0  0
    1.0798   -0.0710    0.4913 C   0  0  1  0  0  3  0  0  0  0  0  0
    2.4767   -0.3767   -0.0087 C   0  0  2  0  0  0  0  0  0  0  0  0
    2.6299    0.1105   -1.4439 C   0  0  0  0  0  0  0  0  0  0  0  0
    2.3747    1.6158   -1.4967 C   0  0  0  0  0  0  0  0  0  0  0  0
    1.0041    2.0771   -0.9373 C   0  0  2  0  0  0  0  0  0  0  0  0
   -2.8854    2.2504   -0.6882 C   0  0  0  0  0  0  0  0  0  0  0  0
   -3.5883   -0.2186    2.5626 C   0  0  0  0  0  0  0  0  0  0  0  0
    3.6518    0.0176    0.9622 C   0  0  2  0  0  0  0  0  0  0  0  0
    3.8656   -1.5036    1.0686 C   0  0  0  0  0  0  0  0  0  0  0  0
    3.3429    0.7879    2.2344 C   0  0  0  0  0  0  0  0  0  0  0  0
    1.1566    3.4504   -0.2550 C   0  0  0  0  0  0  0  0  0  0  0  0
   -2.7819    1.5101   -1.5102 H   0  0  0  0  0  0  0  0  0  0  0  0
   -4.5733    0.2461    2.7491 H   0  0  0  0  0  0  0  0  0  0  0  0
    4.4634    0.5207    0.3977 H   0  0  0  0  0  0  0  0  0  0  0  0
    2.5384    0.3030    2.8228 H   0  0  0  0  0  0  0  0  0  0  0  0
    3.0124    1.8222    2.0090 H   0  0  0  0  0  0  0  0  0  0  0  0
    1.6234    4.1700   -0.9578 H   0  0  0  0  0  0  0  0  0  0  0  0
   -1.3714   -1.4920    2.4888 H   0  0  0  0  0  0  0  0  0  0  0  0
    0.9606   -1.9089    1.6404 H   0  0  0  0  0  0  0  0  0  0  0  0
    1.9205   -0.4529   -2.0825 H   0  0  0  0  0  0  0  0  0  0  0  0
    3.6545   -0.1244   -1.7976 H   0  0  0  0  0  0  0  0  0  0  0  0
    2.4818    1.9872   -2.5355 H   0  0  0  0  0  0  0  0  0  0  0  0
    3.1772    2.1194   -0.9138 H   0  0  0  0  0  0  0  0  0  0  0  0
    0.2927    2.2005   -1.7796 H   0  0  0  0  0  0  0  0  0  0  0  0
   -3.1293    3.2456   -1.1044 H   0  0  0  0  0  0  0  0  0  0  0  0
   -3.6904    1.9204   -0.0030 H   0  0  0  0  0  0  0  0  0  0  0  0
   -3.1041   -0.4402    3.5380 H   0  0  0  0  0  0  0  0  0  0  0  0
   -3.7320   -1.1589    1.9900 H   0  0  0  0  0  0  0  0  0  0  0  0
    4.8436   -1.8933    0.7098 H   0  0  0  0  0  0  0  0  0  0  0  0
    3.6651   -1.9292    2.0799 H   0  0  0  0  0  0  0  0  0  0  0  0
    4.2420    0.8564    2.8807 H   0  0  0  0  0  0  0  0  0  0  0  0
    1.8170    3.3739    0.6340 H   0  0  0  0  0  0  0  0  0  0  0  0
    0.1805    3.8568    0.0659 H   0  0  0  0  0  0  0  0  0  0  0  0
  1  5  1  0  0  0  0
  2 15  1  0  0  0  0
  3 17  1  0  0  0  0
  4  5  2  0  0  0  0
  5  6  1  0  0  0  0
  6  2  1  0  0  0  0
  6  7  2  0  0  0  0
  7 26  1  0  0  0  0
  8 27  1  0  0  0  0
  8  7  1  0  0  0  0
  9  4  1  6  0  0  0
  9  8  1  0  0  0  0
 10  3  1  6  0  0  0
 10  9  1  0  0  0  0
 10 16  1  0  0  0  0
 11 10  1  0  0  0  0
 12 11  1  0  0  0  0
 12 13  1  0  0  0  0
 12 31  1  0  0  0  0
 13 32  1  6  0  0  0
 13 19  1  0  0  0  0
 13  4  1  0  0  0  0
 14  1  1  0  0  0  0
 14 34  1  0  0  0  0
 15 21  1  0  0  0  0
 15 35  1  0  0  0  0
 16 22  1  6  0  0  0
 16 17  1  0  0  0  0
 16 18  1  0  0  0  0
 17 38  1  0  0  0  0
 18 23  1  0  0  0  0
 18 39  1  0  0  0  0
 19 41  1  0  0  0  0
 19 40  1  0  0  0  0
 20 14  1  0  0  0  0
 24 18  1  0  0  0  0
 25 19  1  0  0  0  0
 28 11  1  0  0  0  0
 29 11  1  0  0  0  0
 30 12  1  0  0  0  0
 33 14  1  0  0  0  0
 36 15  1  0  0  0  0
 37 17  1  0  0  0  0
M  END
