5
 OpenBabel05122313113D

 81 85  0  0  1  0  0  0  0  0999 V2000
    1.6802   -0.4962   -0.6645 P   0  0  0  0  0  0  0  0  0  0  0  0
   -1.2253    0.8275    0.8261 P   0  0  0  0  0  0  0  0  0  0  0  0
   -0.1880   -3.2305   -0.6801 C   0  0  0  0  0  0  0  0  0  0  0  0
   -0.1638   -2.9345    0.7512 C   0  0  1  0  0  3  0  0  0  0  0  0
   -1.4738   -2.4335    1.1226 C   0  0  1  0  0  3  0  0  0  0  0  0
   -2.3179   -2.4470   -0.0590 C   0  0  1  0  0  3  0  0  0  0  0  0
   -1.5157   -2.9401   -1.1601 C   0  0  0  0  0  0  0  0  0  0  0  0
    0.9086   -3.8594   -1.4921 C   0  0  0  0  0  0  0  0  0  0  0  0
    0.9020   -3.3594    1.7103 C   0  0  0  0  0  0  0  0  0  0  0  0
   -1.9248   -2.1401    2.5262 C   0  0  0  0  0  0  0  0  0  0  0  0
   -3.8035   -2.2735   -0.0985 C   0  0  0  0  0  0  0  0  0  0  0  0
   -2.0284   -3.1303   -2.5477 C   0  0  0  0  0  0  0  0  0  0  0  0
    2.2897   -3.1745   -1.5101 C   0  0  0  0  0  0  0  0  0  0  0  0
    2.3079   -1.7013   -1.9310 C   0  0  0  0  0  0  0  0  0  0  0  0
   -2.4778   -0.7340    2.8303 C   0  0  0  0  0  0  0  0  0  0  0  0
   -1.4860    0.4141    2.6178 C   0  0  0  0  0  0  0  0  0  0  0  0
    2.7696   -0.7304    0.7974 C   0  0  0  0  0  0  0  0  0  0  0  0
    4.1161   -1.1293    0.6601 C   0  0  0  0  0  0  0  0  0  0  0  0
    4.9361   -1.2438    1.7925 C   0  0  0  0  0  0  0  0  0  0  0  0
    4.4290   -0.9446    3.0678 C   0  0  0  0  0  0  0  0  0  0  0  0
    3.0946   -0.5328    3.2096 C   0  0  0  0  0  0  0  0  0  0  0  0
    2.2706   -0.4349    2.0793 C   0  0  0  0  0  0  0  0  0  0  0  0
    2.2715    1.1147   -1.3262 C   0  0  0  0  0  0  0  0  0  0  0  0
    2.0142    1.4727   -2.6685 C   0  0  0  0  0  0  0  0  0  0  0  0
    2.5507    2.6567   -3.1928 C   0  0  0  0  0  0  0  0  0  0  0  0
    3.3449    3.4925   -2.3918 C   0  0  0  0  0  0  0  0  0  0  0  0
    3.5958    3.1426   -1.0569 C   0  0  0  0  0  0  0  0  0  0  0  0
    3.0636    1.9613   -0.5222 C   0  0  0  0  0  0  0  0  0  0  0  0
   -0.1849    2.3323    0.8120 C   0  0  0  0  0  0  0  0  0  0  0  0
    0.5381    2.7789    1.9357 C   0  0  0  0  0  0  0  0  0  0  0  0
    1.2427    3.9924    1.8773 C   0  0  0  0  0  0  0  0  0  0  0  0
    1.2265    4.7606    0.7042 C   0  0  0  0  0  0  0  0  0  0  0  0
    0.5209    4.3073   -0.4232 C   0  0  0  0  0  0  0  0  0  0  0  0
   -0.1789    3.0964   -0.3765 C   0  0  0  0  0  0  0  0  0  0  0  0
   -2.8740    1.5192    0.3706 C   0  0  0  0  0  0  0  0  0  0  0  0
   -3.3685    2.6142    1.1144 C   0  0  0  0  0  0  0  0  0  0  0  0
   -4.6326    3.1452    0.8279 C   0  0  0  0  0  0  0  0  0  0  0  0
   -5.4086    2.5980   -0.2083 C   0  0  0  0  0  0  0  0  0  0  0  0
   -4.9106    1.5259   -0.9624 C   0  0  0  0  0  0  0  0  0  0  0  0
   -3.6461    0.9862   -0.6762 C   0  0  0  0  0  0  0  0  0  0  0  0
    0.5514   -3.9515   -2.5370 H   0  0  0  0  0  0  0  0  0  0  0  0
    1.0483   -4.9027   -1.1322 H   0  0  0  0  0  0  0  0  0  0  0  0
    0.7341   -4.4251    1.9785 H   0  0  0  0  0  0  0  0  0  0  0  0
    1.9179   -3.2774    1.2883 H   0  0  0  0  0  0  0  0  0  0  0  0
    0.8870   -2.7725    2.6459 H   0  0  0  0  0  0  0  0  0  0  0  0
   -1.0865   -2.3469    3.2212 H   0  0  0  0  0  0  0  0  0  0  0  0
   -2.7138   -2.8822    2.7783 H   0  0  0  0  0  0  0  0  0  0  0  0
   -4.2927   -3.2298    0.1899 H   0  0  0  0  0  0  0  0  0  0  0  0
   -4.1662   -1.4922    0.5921 H   0  0  0  0  0  0  0  0  0  0  0  0
   -4.1596   -2.0184   -1.1133 H   0  0  0  0  0  0  0  0  0  0  0  0
   -2.6970   -4.0162   -2.5842 H   0  0  0  0  0  0  0  0  0  0  0  0
   -2.6060   -2.2470   -2.8817 H   0  0  0  0  0  0  0  0  0  0  0  0
   -1.2128   -3.2836   -3.2768 H   0  0  0  0  0  0  0  0  0  0  0  0
    2.9192   -3.7379   -2.2291 H   0  0  0  0  0  0  0  0  0  0  0  0
    2.7994   -3.2885   -0.5312 H   0  0  0  0  0  0  0  0  0  0  0  0
    3.3374   -1.3850   -2.1943 H   0  0  0  0  0  0  0  0  0  0  0  0
    1.6811   -1.5278   -2.8308 H   0  0  0  0  0  0  0  0  0  0  0  0
   -2.7917   -0.7265    3.8938 H   0  0  0  0  0  0  0  0  0  0  0  0
   -3.4009   -0.5331    2.2478 H   0  0  0  0  0  0  0  0  0  0  0  0
   -1.8617    1.3358    3.1052 H   0  0  0  0  0  0  0  0  0  0  0  0
   -0.5073    0.1765    3.0829 H   0  0  0  0  0  0  0  0  0  0  0  0
    4.5399   -1.3404   -0.3325 H   0  0  0  0  0  0  0  0  0  0  0  0
    5.9830   -1.5616    1.6762 H   0  0  0  0  0  0  0  0  0  0  0  0
    5.0776   -1.0308    3.9523 H   0  0  0  0  0  0  0  0  0  0  0  0
    2.6935   -0.2922    4.2058 H   0  0  0  0  0  0  0  0  0  0  0  0
    1.2199   -0.1338    2.1790 H   0  0  0  0  0  0  0  0  0  0  0  0
    1.3806    0.8355   -3.2990 H   0  0  0  0  0  0  0  0  0  0  0  0
    2.3481    2.9240   -4.2407 H   0  0  0  0  0  0  0  0  0  0  0  0
    3.7693    4.4176   -2.8099 H   0  0  0  0  0  0  0  0  0  0  0  0
    4.2114    3.7941   -0.4192 H   0  0  0  0  0  0  0  0  0  0  0  0
    3.2685    1.7037    0.5256 H   0  0  0  0  0  0  0  0  0  0  0  0
    0.5460    2.2010    2.8710 H   0  0  0  0  0  0  0  0  0  0  0  0
    1.7961    4.3430    2.7613 H   0  0  0  0  0  0  0  0  0  0  0  0
    1.7702    5.7164    0.6657 H   0  0  0  0  0  0  0  0  0  0  0  0
    0.5192    4.8998   -1.3496 H   0  0  0  0  0  0  0  0  0  0  0  0
   -0.7278    2.7357   -1.2598 H   0  0  0  0  0  0  0  0  0  0  0  0
   -2.7575    3.0716    1.9084 H   0  0  0  0  0  0  0  0  0  0  0  0
   -5.0106    3.9981    1.4111 H   0  0  0  0  0  0  0  0  0  0  0  0
   -6.3992    3.0198   -0.4350 H   0  0  0  0  0  0  0  0  0  0  0  0
   -5.5049    1.1090   -1.7894 H   0  0  0  0  0  0  0  0  0  0  0  0
   -3.2304    0.1789   -1.2924 H   0  0  0  0  0  0  0  0  0  0  0  0
  1 17  1  0  0  0  0
  2 16  1  0  0  0  0
  3  4  1  0  0  0  0
  4  5  1  0  0  0  0
  4  9  1  1  0  0  0
  5 10  1  1  0  0  0
  6 11  1  1  0  0  0
  6  5  1  0  0  0  0
  7  3  2  0  0  0  0
  7  6  1  0  0  0  0
  8 42  1  0  0  0  0
  8  3  1  0  0  0  0
  9 43  1  0  0  0  0
  9 45  1  0  0  0  0
 10 47  1  0  0  0  0
 10 15  1  0  0  0  0
 10 46  1  0  0  0  0
 11 48  1  0  0  0  0
 11 49  1  0  0  0  0
 12  7  1  0  0  0  0
 13  8  1  0  0  0  0
 13 55  1  0  0  0  0
 14 13  1  0  0  0  0
 14  1  1  0  0  0  0
 15 58  1  0  0  0  0
 16 15  1  0  0  0  0
 16 61  1  0  0  0  0
 16 60  1  0  0  0  0
 17 22  1  0  0  0  0
 18 17  2  0  0  0  0
 18 19  1  0  0  0  0
 19 20  2  0  0  0  0
 20 21  1  0  0  0  0
 20 64  1  0  0  0  0
 21 65  1  0  0  0  0
 22 66  1  0  0  0  0
 22 21  2  0  0  0  0
 23  1  1  0  0  0  0
 23 28  1  0  0  0  0
 24 23  2  0  0  0  0
 25 24  1  0  0  0  0
 25 26  2  0  0  0  0
 26 27  1  0  0  0  0
 27 28  2  0  0  0  0
 27 70  1  0  0  0  0
 28 71  1  0  0  0  0
 29  2  1  0  0  0  0
 29 30  1  0  0  0  0
 30 72  1  0  0  0  0
 31 30  2  0  0  0  0
 31 73  1  0  0  0  0
 32 31  1  0  0  0  0
 33 34  1  0  0  0  0
 33 32  2  0  0  0  0
 34 29  2  0  0  0  0
 35  2  1  0  0  0  0
 35 36  1  0  0  0  0
 36 77  1  0  0  0  0
 37 36  2  0  0  0  0
 37 78  1  0  0  0  0
 38 37  1  0  0  0  0
 39 40  1  0  0  0  0
 39 38  2  0  0  0  0
 40 35  2  0  0  0  0
 41  8  1  0  0  0  0
 44  9  1  0  0  0  0
 50 11  1  0  0  0  0
 51 12  1  0  0  0  0
 52 12  1  0  0  0  0
 53 12  1  0  0  0  0
 54 13  1  0  0  0  0
 56 14  1  0  0  0  0
 57 14  1  0  0  0  0
 59 15  1  0  0  0  0
 62 18  1  0  0  0  0
 63 19  1  0  0  0  0
 67 24  1  0  0  0  0
 68 25  1  0  0  0  0
 69 26  1  0  0  0  0
 74 32  1  0  0  0  0
 75 33  1  0  0  0  0
 76 34  1  0  0  0  0
 79 38  1  0  0  0  0
 80 39  1  0  0  0  0
 81 40  1  0  0  0  0
M  END
