4
 OpenBabel05122313113D

 28 28  0  0  1  0  0  0  0  0999 V2000
   -0.9337    1.3820    2.6985 O   0  0  0  0  0  0  0  0  0  0  0  0
   -0.1187   -0.7301    1.7352 C   0  0  1  0  0  3  0  0  0  0  0  0
   -0.6742   -1.5401    0.6610 C   0  0  2  0  0  3  0  0  0  0  0  0
   -1.4845   -0.6772   -0.1761 C   0  0  2  0  0  3  0  0  0  0  0  0
   -1.4425    0.6683    0.3897 C   0  0  2  0  0  3  0  0  0  0  0  0
   -0.8889    0.5638    1.7861 C   0  0  0  0  0  0  0  0  0  0  0  0
    0.6652   -1.2304    2.9090 C   0  0  0  0  0  0  0  0  0  0  0  0
   -0.5563   -3.0300    0.5412 C   0  0  0  0  0  0  0  0  0  0  0  0
   -2.3713   -1.1334   -1.3032 C   0  0  0  0  0  0  0  0  0  0  0  0
   -3.7765   -1.4947   -0.7990 C   0  0  0  0  0  0  0  0  0  0  0  0
   -2.2515    1.8487   -0.0730 C   0  0  0  0  0  0  0  0  0  0  0  0
   -1.5198    3.1885    0.0489 C   0  0  0  0  0  0  0  0  0  0  0  0
    1.1006   -0.3724    3.4566 H   0  0  0  0  0  0  0  0  0  0  0  0
    0.0033   -1.7688    3.6214 H   0  0  0  0  0  0  0  0  0  0  0  0
    1.4811   -1.9196    2.6173 H   0  0  0  0  0  0  0  0  0  0  0  0
    0.4307   -3.3919    0.8866 H   0  0  0  0  0  0  0  0  0  0  0  0
   -1.3268   -3.5175    1.1763 H   0  0  0  0  0  0  0  0  0  0  0  0
   -0.7062   -3.3760   -0.4989 H   0  0  0  0  0  0  0  0  0  0  0  0
   -1.9099   -2.0046   -1.8112 H   0  0  0  0  0  0  0  0  0  0  0  0
   -2.4404   -0.3337   -2.0686 H   0  0  0  0  0  0  0  0  0  0  0  0
   -4.4258   -1.8242   -1.6343 H   0  0  0  0  0  0  0  0  0  0  0  0
   -3.7379   -2.3151   -0.0539 H   0  0  0  0  0  0  0  0  0  0  0  0
   -4.2623   -0.6252   -0.3125 H   0  0  0  0  0  0  0  0  0  0  0  0
   -3.1720    1.8821    0.5533 H   0  0  0  0  0  0  0  0  0  0  0  0
   -2.5941    1.6877   -1.1169 H   0  0  0  0  0  0  0  0  0  0  0  0
   -2.1851    4.0344   -0.2144 H   0  0  0  0  0  0  0  0  0  0  0  0
   -1.1610    3.3331    1.0864 H   0  0  0  0  0  0  0  0  0  0  0  0
   -0.6414    3.2175   -0.6280 H   0  0  0  0  0  0  0  0  0  0  0  0
  2  6  1  0  0  0  0
  2  7  1  1  0  0  0
  3  8  1  1  0  0  0
  3  2  1  0  0  0  0
  4  9  1  1  0  0  0
  4  5  1  0  0  0  0
  4  3  1  0  0  0  0
  5 11  1  1  0  0  0
  5  6  1  0  0  0  0
  6  1  2  0  0  0  0
  7 13  1  0  0  0  0
  7 14  1  0  0  0  0
  8 16  1  0  0  0  0
  8 17  1  0  0  0  0
  9 10  1  0  0  0  0
 10 23  1  0  0  0  0
 10 22  1  0  0  0  0
 11 12  1  0  0  0  0
 11 24  1  0  0  0  0
 12 27  1  0  0  0  0
 15  7  1  0  0  0  0
 18  8  1  0  0  0  0
 19  9  1  0  0  0  0
 20  9  1  0  0  0  0
 21 10  1  0  0  0  0
 25 11  1  0  0  0  0
 26 12  1  0  0  0  0
 28 12  1  0  0  0  0
M  END
