16
 OpenBabel05122313113D

 30 30  0  0  0  0  0  0  0  0999 V2000
   -3.1368   -0.8996    2.4605 O   0  0  0  0  0  0  0  0  0  0  0  0
   -2.0681    0.9766    3.2051 O   0  0  0  0  0  0  0  0  0  0  0  0
    6.5648   -1.5467    1.0473 O   0  0  0  0  0  0  0  0  0  0  0  0
    5.6515   -3.4537    0.4861 O   0  0  0  0  0  0  0  0  0  0  0  0
   -5.3786   -0.7069    1.6375 C   0  0  0  0  0  0  0  0  0  0  0  0
   -5.0155   -0.3715    0.6465 H   0  0  0  0  0  0  0  0  0  0  0  0
   -6.3771   -0.2570    1.8071 H   0  0  0  0  0  0  0  0  0  0  0  0
   -5.4968   -1.8098    1.6145 H   0  0  0  0  0  0  0  0  0  0  0  0
   -4.8678   -0.6858    4.1418 C   0  0  0  0  0  0  0  0  0  0  0  0
   -4.9563   -1.7887    4.2215 H   0  0  0  0  0  0  0  0  0  0  0  0
   -5.8540   -0.2386    4.3802 H   0  0  0  0  0  0  0  0  0  0  0  0
   -4.1384   -0.3325    4.8963 H   0  0  0  0  0  0  0  0  0  0  0  0
   -4.4213   -0.2808    2.7414 C   0  0  0  0  0  0  0  0  0  0  0  0
   -4.2654    0.8177    2.7125 H   0  0  0  0  0  0  0  0  0  0  0  0
   -2.0175   -0.1490    2.7199 C   0  0  0  0  0  0  0  0  0  0  0  0
   -0.7941   -0.8583    2.2932 C   0  0  0  0  0  3  0  0  0  0  0  0
   -0.8909   -1.9433    2.1340 H   0  0  0  0  0  0  0  0  0  0  0  0
    0.4771   -0.2191    2.4661 C   0  0  0  0  0  3  0  0  0  0  0  0
    0.4793    0.7373    3.0156 H   0  0  0  0  0  0  0  0  0  0  0  0
    1.7797   -0.8416    2.2180 C   0  0  0  0  0  0  0  0  0  0  0  0
    1.9260   -2.1647    1.7121 C   0  0  0  0  0  0  0  0  0  0  0  0
    1.0371   -2.7984    1.5823 H   0  0  0  0  0  0  0  0  0  0  0  0
    3.1717   -2.6577    1.3311 C   0  0  0  0  0  0  0  0  0  0  0  0
    3.2938   -3.6628    0.9067 H   0  0  0  0  0  0  0  0  0  0  0  0
    4.3077   -1.8412    1.4631 C   0  0  0  0  0  0  0  0  0  0  0  0
    4.2117   -0.5541    2.0226 C   0  0  0  0  0  0  0  0  0  0  0  0
    5.1254    0.0457    2.1255 H   0  0  0  0  0  0  0  0  0  0  0  0
    2.9644   -0.0735    2.4064 C   0  0  0  0  0  0  0  0  0  0  0  0
    2.8768    0.9430    2.8199 H   0  0  0  0  0  0  0  0  0  0  0  0
    5.5980   -2.3164    0.9723 N   0  0  0  0  0  0  0  0  0  0  0  0
  1 15  1  0  0  0  0
  1 13  1  0  0  0  0
  4 30  2  0  0  0  0
  5  7  1  0  0  0  0
  5 13  1  0  0  0  0
  6  5  1  0  0  0  0
  8  5  1  0  0  0  0
  9 10  1  0  0  0  0
  9 11  1  0  0  0  0
  9 12  1  0  0  0  0
 13  9  1  0  0  0  0
 14 13  1  0  0  0  0
 15  2  2  0  0  0  0
 16 18  1  0  0  0  0
 16 15  1  0  0  0  0
 17 16  1  0  0  0  0
 18 19  1  0  0  0  0
 20 28  1  0  0  0  0
 20 18  1  0  0  0  0
 21 20  2  0  0  0  0
 22 21  1  0  0  0  0
 23 25  2  0  0  0  0
 23 21  1  0  0  0  0
 24 23  1  0  0  0  0
 25 26  1  0  0  0  0
 26 27  1  0  0  0  0
 26 28  2  0  0  0  0
 28 29  1  0  0  0  0
 30  3  2  0  0  0  0
 30 25  1  0  0  0  0
M  END
