1
 OpenBabel05122313113D

 49 51  0  0  0  0  0  0  0  0999 V2000
    0.1876    0.8055    0.1042 C   0  0  0  0  0  2  0  0  0  0  0  0
   -0.1267    1.8825    0.8472 O   0  0  0  0  0  0  0  0  0  0  0  0
    0.8058    2.8851    1.2772 C   0  0  0  0  0  0  0  0  0  0  0  0
    0.0558    3.8301    2.1954 C   0  0  0  0  0  0  0  0  0  0  0  0
   -1.0550    0.1414   -0.2024 C   0  0  0  0  0  0  0  0  0  0  0  0
   -1.0495   -0.9985   -1.0059 C   0  0  0  0  0  0  0  0  0  0  0  0
   -2.0666   -1.7260   -1.4799 N   0  0  0  0  0  0  0  0  0  0  0  0
   -3.5049   -1.4060   -1.4230 C   0  0  0  0  0  0  0  0  0  0  0  0
   -4.1795   -2.6089   -2.0960 C   0  0  0  0  0  0  0  0  0  0  0  0
   -3.1073   -3.1377   -3.0600 C   0  0  0  0  0  0  0  0  0  0  0  0
   -1.8227   -2.9600   -2.2500 C   0  0  0  0  0  0  0  0  0  0  0  0
   -2.3093    0.5877    0.5058 C   0  0  0  0  0  0  0  0  0  0  0  0
   -2.8176   -0.1061    1.4780 N   0  0  0  0  0  0  0  0  0  0  0  0
   -2.1758   -1.2358    1.9998 C   0  0  0  0  0  0  0  0  0  0  0  0
   -2.8684   -2.4689    2.0354 C   0  0  0  0  0  0  0  0  0  0  0  0
   -2.2448   -3.6188    2.5392 C   0  0  0  0  0  0  0  0  0  0  0  0
   -0.9397   -3.5543    3.0545 C   0  0  0  0  0  0  0  0  0  0  0  0
   -0.2656   -2.3219    3.0706 C   0  0  0  0  0  0  0  0  0  0  0  0
   -0.8699   -1.1739    2.5456 C   0  0  0  0  0  0  0  0  0  0  0  0
   -3.0029    1.8228    0.0636 C   0  0  0  0  0  0  0  0  0  0  0  0
   -2.5805    2.5166   -1.0911 C   0  0  0  0  0  0  0  0  0  0  0  0
   -3.2412    3.6829   -1.5012 C   0  0  0  0  0  0  0  0  0  0  0  0
   -4.3317    4.1703   -0.7628 C   0  0  0  0  0  0  0  0  0  0  0  0
   -4.7602    3.4838    0.3882 C   0  0  0  0  0  0  0  0  0  0  0  0
   -4.1019    2.3201    0.7989 C   0  0  0  0  0  0  0  0  0  0  0  0
    1.1949    3.4096    0.3806 H   0  0  0  0  0  0  0  0  0  0  0  0
    1.6635    2.4030    1.7873 H   0  0  0  0  0  0  0  0  0  0  0  0
    0.7303    4.6416    2.5323 H   0  0  0  0  0  0  0  0  0  0  0  0
   -0.3220    3.2963    3.0897 H   0  0  0  0  0  0  0  0  0  0  0  0
   -0.8088    4.2843    1.6722 H   0  0  0  0  0  0  0  0  0  0  0  0
   -0.0619   -1.3655   -1.3189 H   0  0  0  0  0  0  0  0  0  0  0  0
   -3.6802   -0.4543   -1.9706 H   0  0  0  0  0  0  0  0  0  0  0  0
   -3.8439   -1.2487   -0.3822 H   0  0  0  0  0  0  0  0  0  0  0  0
   -4.4166   -3.3793   -1.3326 H   0  0  0  0  0  0  0  0  0  0  0  0
   -5.1269   -2.3315   -2.5960 H   0  0  0  0  0  0  0  0  0  0  0  0
   -3.0678   -2.5129   -3.9767 H   0  0  0  0  0  0  0  0  0  0  0  0
   -3.2718   -4.1870   -3.3706 H   0  0  0  0  0  0  0  0  0  0  0  0
   -1.6622   -3.8085   -1.5475 H   0  0  0  0  0  0  0  0  0  0  0  0
   -0.9079   -2.8498   -2.8655 H   0  0  0  0  0  0  0  0  0  0  0  0
   -3.9017   -2.5087    1.6583 H   0  0  0  0  0  0  0  0  0  0  0  0
   -2.7914   -4.5746    2.5416 H   0  0  0  0  0  0  0  0  0  0  0  0
   -0.4552   -4.4570    3.4550 H   0  0  0  0  0  0  0  0  0  0  0  0
    0.7512   -2.2493    3.4862 H   0  0  0  0  0  0  0  0  0  0  0  0
   -0.3410   -0.2115    2.5641 H   0  0  0  0  0  0  0  0  0  0  0  0
   -1.7234    2.1323   -1.6650 H   0  0  0  0  0  0  0  0  0  0  0  0
   -2.9017    4.2165   -2.4019 H   0  0  0  0  0  0  0  0  0  0  0  0
   -4.8486    5.0880   -1.0828 H   0  0  0  0  0  0  0  0  0  0  0  0
   -5.6133    3.8654    0.9699 H   0  0  0  0  0  0  0  0  0  0  0  0
   -4.4139    1.7666    1.6966 H   0  0  0  0  0  0  0  0  0  0  0  0
  1  2  1  0  0  0  0
  2  3  1  0  0  0  0
  3 27  1  0  0  0  0
  3  4  1  0  0  0  0
  4 28  1  0  0  0  0
  4 29  1  0  0  0  0
  5  1  1  0  0  0  0
  5 12  1  0  0  0  0
  6  5  2  0  0  0  0
  7  8  1  0  0  0  0
  7  6  1  0  0  0  0
  8 33  1  0  0  0  0
  9  8  1  0  0  0  0
  9 34  1  0  0  0  0
 10 11  1  0  0  0  0
 10  9  1  0  0  0  0
 11 38  1  0  0  0  0
 11  7  1  0  0  0  0
 12 13  2  0  0  0  0
 13 14  1  0  0  0  0
 14 15  2  0  0  0  0
 14 19  1  0  0  0  0
 15 16  1  0  0  0  0
 16 41  1  0  0  0  0
 16 17  2  0  0  0  0
 17 18  1  0  0  0  0
 17 42  1  0  0  0  0
 18 43  1  0  0  0  0
 19 44  1  0  0  0  0
 19 18  2  0  0  0  0
 20 12  1  0  0  0  0
 20 25  1  0  0  0  0
 21 20  2  0  0  0  0
 22 21  1  0  0  0  0
 22 23  2  0  0  0  0
 23 24  1  0  0  0  0
 24 25  2  0  0  0  0
 24 48  1  0  0  0  0
 25 49  1  0  0  0  0
 26  3  1  0  0  0  0
 30  4  1  0  0  0  0
 31  6  1  0  0  0  0
 32  8  1  0  0  0  0
 35  9  1  0  0  0  0
 36 10  1  0  0  0  0
 37 10  1  0  0  0  0
 39 11  1  0  0  0  0
 40 15  1  0  0  0  0
 45 21  1  0  0  0  0
 46 22  1  0  0  0  0
 47 23  1  0  0  0  0
M  END
