10
 OpenBabel05122313113D

 36 36  0  0  1  0  0  0  0  0999 V2000
    0.9873   -0.3288    2.0980 C   0  0  0  0  0  0  0  0  0  0  0  0
    1.5585   -0.4079    3.1766 O   0  0  0  0  0  0  0  0  0  0  0  0
    0.6585    0.9074    1.3013 C   0  0  0  0  0  3  0  0  0  0  0  0
   -0.3745    0.5830    0.3511 C   0  0  2  0  0  3  0  0  0  0  0  0
   -1.2717    1.3160   -0.3133 O   0  0  0  0  0  0  0  0  0  0  0  0
   -1.5505    2.7320   -0.0111 C   0  0  0  0  0  0  0  0  0  0  0  0
   -1.9586    2.8766    1.4588 C   0  0  0  0  0  0  0  0  0  0  0  0
   -0.3560    3.6151   -0.3834 C   0  0  0  0  0  0  0  0  0  0  0  0
   -2.7375    3.0319   -0.9298 C   0  0  0  0  0  0  0  0  0  0  0  0
   -0.3679   -0.8620    0.1972 C   0  0  2  0  0  3  0  0  0  0  0  0
   -1.1948   -1.5280   -0.6414 O   0  0  0  0  0  0  0  0  0  0  0  0
   -2.4131   -2.1498   -0.0914 C   0  0  0  0  0  0  0  0  0  0  0  0
   -3.1923   -1.1308    0.7457 C   0  0  0  0  0  0  0  0  0  0  0  0
   -2.0392   -3.3834    0.7377 C   0  0  0  0  0  0  0  0  0  0  0  0
   -3.1886   -2.5442   -1.3474 C   0  0  0  0  0  0  0  0  0  0  0  0
    0.5929   -1.4029    1.1390 C   0  0  0  0  0  3  0  0  0  0  0  0
    0.9352    1.9107    1.6425 H   0  0  0  0  0  0  0  0  0  0  0  0
   -2.2982    3.9136    1.6496 H   0  0  0  0  0  0  0  0  0  0  0  0
   -2.7953    2.1902    1.6959 H   0  0  0  0  0  0  0  0  0  0  0  0
   -1.1253    2.6627    2.1538 H   0  0  0  0  0  0  0  0  0  0  0  0
   -0.0820    3.4762   -1.4460 H   0  0  0  0  0  0  0  0  0  0  0  0
    0.5373    3.4055    0.2336 H   0  0  0  0  0  0  0  0  0  0  0  0
   -0.6253    4.6788   -0.2305 H   0  0  0  0  0  0  0  0  0  0  0  0
   -2.4605    2.8505   -1.9864 H   0  0  0  0  0  0  0  0  0  0  0  0
   -3.0490    4.0887   -0.8215 H   0  0  0  0  0  0  0  0  0  0  0  0
   -3.5990    2.3830   -0.6780 H   0  0  0  0  0  0  0  0  0  0  0  0
   -3.4136   -0.2274    0.1462 H   0  0  0  0  0  0  0  0  0  0  0  0
   -4.1459   -1.5754    1.0924 H   0  0  0  0  0  0  0  0  0  0  0  0
   -2.6195   -0.8247    1.6446 H   0  0  0  0  0  0  0  0  0  0  0  0
   -1.5070   -3.1045    1.6678 H   0  0  0  0  0  0  0  0  0  0  0  0
   -1.3938   -4.0639    0.1481 H   0  0  0  0  0  0  0  0  0  0  0  0
   -2.9539   -3.9369    1.0299 H   0  0  0  0  0  0  0  0  0  0  0  0
   -2.5873   -3.2383   -1.9665 H   0  0  0  0  0  0  0  0  0  0  0  0
   -4.1394   -3.0434   -1.0769 H   0  0  0  0  0  0  0  0  0  0  0  0
   -3.4153   -1.6461   -1.9542 H   0  0  0  0  0  0  0  0  0  0  0  0
    0.7744   -2.4727    1.2949 H   0  0  0  0  0  0  0  0  0  0  0  0
  1  2  2  0  0  0  0
  3 17  1  0  0  0  0
  3  1  1  0  0  0  0
  4  5  1  1  0  0  0
  4  3  1  0  0  0  0
  5  6  1  0  0  0  0
  6  7  1  0  0  0  0
  7 18  1  0  0  0  0
  7 19  1  0  0  0  0
  7 20  1  0  0  0  0
  8 23  1  0  0  0  0
  8  6  1  0  0  0  0
  8 22  1  0  0  0  0
  9 25  1  0  0  0  0
  9 26  1  0  0  0  0
  9  6  1  0  0  0  0
 10 11  1  1  0  0  0
 10  4  1  0  0  0  0
 10 16  1  0  0  0  0
 11 12  1  0  0  0  0
 12 14  1  0  0  0  0
 12 13  1  0  0  0  0
 13 28  1  0  0  0  0
 13 29  1  0  0  0  0
 14 32  1  0  0  0  0
 14 30  1  0  0  0  0
 15 34  1  0  0  0  0
 15 12  1  0  0  0  0
 16 36  1  0  0  0  0
 16  1  1  0  0  0  0
 21  8  1  0  0  0  0
 24  9  1  0  0  0  0
 27 13  1  0  0  0  0
 31 14  1  0  0  0  0
 33 15  1  0  0  0  0
 35 15  1  0  0  0  0
M  END
