1
 OpenBabel05122313113D

 43 43  0  0  0  0  0  0  0  0999 V2000
   -1.4249    0.0165    0.0565 C   0  0  0  0  0  2  0  0  0  0  0  0
   -1.5362    0.5895    1.2514 N   0  0  0  0  0  0  0  0  0  0  0  0
   -0.4083    1.0223    2.0647 C   0  0  0  0  0  0  0  0  0  0  0  0
   -0.4119    2.5424    2.2722 C   0  0  0  0  0  0  0  0  0  0  0  0
    0.7989    2.9785    3.1075 C   0  0  0  0  0  0  0  0  0  0  0  0
    0.8728    2.2201    4.4395 C   0  0  0  0  0  0  0  0  0  0  0  0
    0.8675    0.7013    4.2195 C   0  0  0  0  0  0  0  0  0  0  0  0
   -0.3430    0.2529    3.3904 C   0  0  0  0  0  0  0  0  0  0  0  0
   -2.5675   -0.3400   -0.5627 N   0  0  0  0  0  0  0  0  0  0  0  0
   -3.8303   -0.1330    0.0080 N   0  0  0  0  0  0  0  0  0  0  0  0
   -4.4770   -1.4278    0.3627 C   0  0  0  0  0  0  0  0  0  0  0  0
   -4.7459   -2.3315   -0.8501 C   0  0  0  0  0  0  0  0  0  0  0  0
   -3.6592   -2.1484    1.4353 C   0  0  0  0  0  0  0  0  0  0  0  0
   -4.6209    0.8264   -0.8087 C   0  0  0  0  0  0  0  0  0  0  0  0
   -3.8942    2.1723   -0.8729 C   0  0  0  0  0  0  0  0  0  0  0  0
   -6.0330    1.0040   -0.2461 C   0  0  0  0  0  0  0  0  0  0  0  0
   -2.4993    0.7200    1.5952 H   0  0  0  0  0  0  0  0  0  0  0  0
    0.4930    0.7573    1.4669 H   0  0  0  0  0  0  0  0  0  0  0  0
   -0.4141    3.0393    1.2798 H   0  0  0  0  0  0  0  0  0  0  0  0
   -1.3535    2.8362    2.7913 H   0  0  0  0  0  0  0  0  0  0  0  0
    1.7257    2.7828    2.5220 H   0  0  0  0  0  0  0  0  0  0  0  0
    0.7683    4.0743    3.2806 H   0  0  0  0  0  0  0  0  0  0  0  0
    1.7759    2.5251    5.0085 H   0  0  0  0  0  0  0  0  0  0  0  0
   -0.0023    2.5009    5.0685 H   0  0  0  0  0  0  0  0  0  0  0  0
    1.7974    0.4049    3.6834 H   0  0  0  0  0  0  0  0  0  0  0  0
    0.8853    0.1639    5.1903 H   0  0  0  0  0  0  0  0  0  0  0  0
   -0.2987   -0.8344    3.1718 H   0  0  0  0  0  0  0  0  0  0  0  0
   -1.2811    0.4369    3.9637 H   0  0  0  0  0  0  0  0  0  0  0  0
   -2.4896   -0.7526   -1.4995 H   0  0  0  0  0  0  0  0  0  0  0  0
   -5.4484   -1.1442    0.8134 H   0  0  0  0  0  0  0  0  0  0  0  0
   -5.3419   -1.8187   -1.6323 H   0  0  0  0  0  0  0  0  0  0  0  0
   -3.7979   -2.6864   -1.3053 H   0  0  0  0  0  0  0  0  0  0  0  0
   -5.3098   -3.2330   -0.5393 H   0  0  0  0  0  0  0  0  0  0  0  0
   -2.6521   -2.4296    1.0630 H   0  0  0  0  0  0  0  0  0  0  0  0
   -3.5300   -1.5128    2.3335 H   0  0  0  0  0  0  0  0  0  0  0  0
   -4.1759   -3.0785    1.7445 H   0  0  0  0  0  0  0  0  0  0  0  0
   -4.7114    0.4336   -1.8555 H   0  0  0  0  0  0  0  0  0  0  0  0
   -3.8342    2.6299    0.1361 H   0  0  0  0  0  0  0  0  0  0  0  0
   -2.8653    2.0782   -1.2728 H   0  0  0  0  0  0  0  0  0  0  0  0
   -4.4474    2.8679   -1.5342 H   0  0  0  0  0  0  0  0  0  0  0  0
   -6.6622    0.0990   -0.3488 H   0  0  0  0  0  0  0  0  0  0  0  0
   -5.9913    1.2850    0.8267 H   0  0  0  0  0  0  0  0  0  0  0  0
   -6.5427    1.8220   -0.7914 H   0  0  0  0  0  0  0  0  0  0  0  0
  1  2  1  0  0  0  0
  2 17  1  0  0  0  0
  2  3  1  0  0  0  0
  3  4  1  0  0  0  0
  3  8  1  0  0  0  0
  4 20  1  0  0  0  0
  4  5  1  0  0  0  0
  5 22  1  0  0  0  0
  5  6  1  0  0  0  0
  6 23  1  0  0  0  0
  6 24  1  0  0  0  0
  7  6  1  0  0  0  0
  7 26  1  0  0  0  0
  8 28  1  0  0  0  0
  8  7  1  0  0  0  0
  9 10  1  0  0  0  0
  9  1  1  0  0  0  0
 10 11  1  0  0  0  0
 11 30  1  0  0  0  0
 11 13  1  0  0  0  0
 12 33  1  0  0  0  0
 12 11  1  0  0  0  0
 13 36  1  0  0  0  0
 13 35  1  0  0  0  0
 14 16  1  0  0  0  0
 14 10  1  0  0  0  0
 15 14  1  0  0  0  0
 15 38  1  0  0  0  0
 16 42  1  0  0  0  0
 18  3  1  0  0  0  0
 19  4  1  0  0  0  0
 21  5  1  0  0  0  0
 25  7  1  0  0  0  0
 27  8  1  0  0  0  0
 29  9  1  0  0  0  0
 31 12  1  0  0  0  0
 32 12  1  0  0  0  0
 34 13  1  0  0  0  0
 37 14  1  0  0  0  0
 39 15  1  0  0  0  0
 40 15  1  0  0  0  0
 41 16  1  0  0  0  0
 43 16  1  0  0  0  0
M  END
