2
 OpenBabel05122313113D

 30 32  0  0  1  0  0  0  0  0999 V2000
    1.6700   -0.1285    2.2059 C   0  0  2  0  0  3  0  0  0  0  0  0
    0.7449    0.6211    1.4041 C   0  0  0  0  0  3  0  0  0  0  0  0
   -0.1428    1.1163    1.8171 H   0  0  0  0  0  0  0  0  0  0  0  0
    1.4545    1.0614    0.1895 C   0  0  2  0  0  3  0  0  0  0  0  0
    2.8783    0.6784    0.4116 C   0  0  0  0  0  0  0  0  0  0  0  0
    2.9929   -0.0676    1.6255 C   0  0  0  0  0  0  0  0  0  0  0  0
    4.0334    0.9952   -0.3131 C   0  0  0  0  0  0  0  0  0  0  0  0
    3.9713    1.6143   -1.2203 H   0  0  0  0  0  0  0  0  0  0  0  0
    5.2741    0.5250    0.1557 C   0  0  0  0  0  0  0  0  0  0  0  0
    6.1901    0.7757   -0.4007 H   0  0  0  0  0  0  0  0  0  0  0  0
    5.3748   -0.2515    1.3311 C   0  0  0  0  0  0  0  0  0  0  0  0
    6.3619   -0.5964    1.6717 H   0  0  0  0  0  0  0  0  0  0  0  0
    4.2307   -0.5524    2.0840 C   0  0  0  0  0  0  0  0  0  0  0  0
    4.2976   -1.1200    3.0237 H   0  0  0  0  0  0  0  0  0  0  0  0
    1.2332    2.3604   -0.5186 C   0  0  0  0  0  0  0  0  0  0  0  0
    1.2213    2.4205   -1.9276 C   0  0  0  0  0  0  0  0  0  0  0  0
    1.2860    1.4787   -2.4945 H   0  0  0  0  0  0  0  0  0  0  0  0
    1.1202    3.6516   -2.5944 C   0  0  0  0  0  0  0  0  0  0  0  0
    1.1083    3.6812   -3.6947 H   0  0  0  0  0  0  0  0  0  0  0  0
    1.0393    4.8451   -1.8575 C   0  0  0  0  0  0  0  0  0  0  0  0
    0.9626    5.8116   -2.3776 H   0  0  0  0  0  0  0  0  0  0  0  0
    1.0695    4.7976   -0.4545 C   0  0  0  0  0  0  0  0  0  0  0  0
    1.0142    5.7285    0.1297 H   0  0  0  0  0  0  0  0  0  0  0  0
    1.1676    3.5661    0.2091 C   0  0  0  0  0  0  0  0  0  0  0  0
    1.1923    3.5345    1.3089 H   0  0  0  0  0  0  0  0  0  0  0  0
    1.4263   -0.8137    3.3115 O   0  0  0  0  0  0  0  0  0  0  0  0
    0.0791   -0.8081    3.7991 C   0  0  0  0  0  0  0  0  0  0  0  0
   -0.6051   -1.1671    3.0000 H   0  0  0  0  0  0  0  0  0  0  0  0
   -0.2221    0.2140    4.1068 H   0  0  0  0  0  0  0  0  0  0  0  0
    0.0561   -1.4863    4.6692 H   0  0  0  0  0  0  0  0  0  0  0  0
  1 26  1  6  0  0  0
  2  3  1  0  0  0  0
  2  1  1  0  0  0  0
  4 15  1  1  0  0  0
  4  5  1  0  0  0  0
  4  2  1  0  0  0  0
  5  6  1  0  0  0  0
  6 13  2  0  0  0  0
  6  1  1  0  0  0  0
  7  9  1  0  0  0  0
  7  5  2  0  0  0  0
  8  7  1  0  0  0  0
  9 11  2  0  0  0  0
 10  9  1  0  0  0  0
 11 12  1  0  0  0  0
 11 13  1  0  0  0  0
 13 14  1  0  0  0  0
 15 24  1  0  0  0  0
 16 15  2  0  0  0  0
 17 16  1  0  0  0  0
 18 16  1  0  0  0  0
 18 20  2  0  0  0  0
 19 18  1  0  0  0  0
 20 22  1  0  0  0  0
 21 20  1  0  0  0  0
 22 23  1  0  0  0  0
 22 24  2  0  0  0  0
 24 25  1  0  0  0  0
 26 27  1  0  0  0  0
 27 29  1  0  0  0  0
 27 30  1  0  0  0  0
 28 27  1  0  0  0  0
M  END
