1
 OpenBabel05122313113D

 27 27  0  0  0  0  0  0  0  0999 V2000
    0.2370   -0.0735   -0.6665 C   0  0  0  0  0  2  0  0  0  0  0  0
   -0.2714   -1.0959   -1.3622 N   0  0  0  0  0  0  0  0  0  0  0  0
    0.2879   -1.9331   -1.5280 H   0  0  0  0  0  0  0  0  0  0  0  0
   -1.2410   -1.1070   -1.6978 H   0  0  0  0  0  0  0  0  0  0  0  0
   -0.6336    1.0403   -0.3747 C   0  0  0  0  0  0  0  0  0  0  0  0
   -0.1164    1.9942   -0.2112 H   0  0  0  0  0  0  0  0  0  0  0  0
   -2.0114    1.0338   -0.1705 C   0  0  0  0  0  0  0  0  0  0  0  0
   -2.7237    2.2074   -0.0486 N   0  0  0  0  0  0  0  0  0  0  0  0
   -3.9018    2.3100    0.8032 C   0  0  0  0  0  0  0  0  0  0  0  0
   -4.6678    2.9537    0.3236 H   0  0  0  0  0  0  0  0  0  0  0  0
   -3.6438    2.7581    1.7906 H   0  0  0  0  0  0  0  0  0  0  0  0
   -4.3399    1.3131    0.9818 H   0  0  0  0  0  0  0  0  0  0  0  0
   -2.0732    3.4716   -0.3413 C   0  0  0  0  0  0  0  0  0  0  0  0
   -1.3815    3.7939    0.4724 H   0  0  0  0  0  0  0  0  0  0  0  0
   -2.8453    4.2551   -0.4669 H   0  0  0  0  0  0  0  0  0  0  0  0
   -1.4885    3.3920   -1.2780 H   0  0  0  0  0  0  0  0  0  0  0  0
   -2.7946   -0.2322   -0.0458 C   0  0  0  0  0  0  0  0  0  0  0  0
   -2.4450   -1.1985    0.9216 C   0  0  0  0  0  0  0  0  0  0  0  0
   -1.5955   -1.0088    1.5939 H   0  0  0  0  0  0  0  0  0  0  0  0
   -3.1656   -2.3970    1.0146 C   0  0  0  0  0  0  0  0  0  0  0  0
   -2.8823   -3.1423    1.7729 H   0  0  0  0  0  0  0  0  0  0  0  0
   -4.2403   -2.6472    0.1452 C   0  0  0  0  0  0  0  0  0  0  0  0
   -4.8019   -3.5908    0.2186 H   0  0  0  0  0  0  0  0  0  0  0  0
   -4.5980   -1.6889   -0.8174 C   0  0  0  0  0  0  0  0  0  0  0  0
   -5.4379   -1.8805   -1.5023 H   0  0  0  0  0  0  0  0  0  0  0  0
   -3.8828   -0.4859   -0.9104 C   0  0  0  0  0  0  0  0  0  0  0  0
   -4.1570    0.2685   -1.6640 H   0  0  0  0  0  0  0  0  0  0  0  0
  1  5  1  0  0  0  0
  2  1  1  0  0  0  0
  3  2  1  0  0  0  0
  4  2  1  0  0  0  0
  5  6  1  0  0  0  0
  5  7  2  0  0  0  0
  7  8  1  0  0  0  0
  7 17  1  0  0  0  0
  8  9  1  0  0  0  0
  9 12  1  0  0  0  0
  9 11  1  0  0  0  0
 10  9  1  0  0  0  0
 13  8  1  0  0  0  0
 13 14  1  0  0  0  0
 15 13  1  0  0  0  0
 16 13  1  0  0  0  0
 17 18  1  0  0  0  0
 18 20  2  0  0  0  0
 18 19  1  0  0  0  0
 20 21  1  0  0  0  0
 22 23  1  0  0  0  0
 22 20  1  0  0  0  0
 24 22  2  0  0  0  0
 25 24  1  0  0  0  0
 26 24  1  0  0  0  0
 26 17  2  0  0  0  0
 27 26  1  0  0  0  0
M  END
