4
 OpenBabel05122313113D

 28 29  0  0  0  0  0  0  0  0999 V2000
    1.5272   -0.7913    1.2335 N   0  0  0  0  0  0  0  0  0  0  0  0
    1.2105    0.9706    2.4194 N   0  0  0  0  0  0  0  0  0  0  0  0
    0.9826    1.9295    2.6774 H   0  0  0  0  0  0  0  0  0  0  0  0
    1.2364    0.5441    1.1236 C   0  0  0  0  0  2  0  0  0  0  0  0
    2.0377   -2.5748    2.9683 C   0  0  0  0  0  0  0  0  0  0  0  0
    1.2473   -3.2902    2.6634 H   0  0  0  0  0  0  0  0  0  0  0  0
    2.1615   -2.6411    4.0645 H   0  0  0  0  0  0  0  0  0  0  0  0
    2.9795   -2.9107    2.4886 H   0  0  0  0  0  0  0  0  0  0  0  0
    1.4877   -0.0485    3.3202 C   0  0  0  0  0  0  0  0  0  0  0  0
    1.5229    0.1085    4.4020 H   0  0  0  0  0  0  0  0  0  0  0  0
    1.6950   -1.1816    2.5744 C   0  0  0  0  0  0  0  0  0  0  0  0
    1.6539   -1.7119    0.1363 C   0  0  0  0  0  0  0  0  0  0  0  0
    0.5380   -2.4978   -0.2305 C   0  0  0  0  0  0  0  0  0  0  0  0
    0.7033   -3.3824   -1.3145 C   0  0  0  0  0  0  0  0  0  0  0  0
   -0.1502   -3.9992   -1.6351 H   0  0  0  0  0  0  0  0  0  0  0  0
    1.9306   -3.4873   -1.9792 C   0  0  0  0  0  0  0  0  0  0  0  0
    2.0369   -4.1840   -2.8238 H   0  0  0  0  0  0  0  0  0  0  0  0
    3.0271   -2.7120   -1.5747 C   0  0  0  0  0  0  0  0  0  0  0  0
    3.9899   -2.8020   -2.0997 H   0  0  0  0  0  0  0  0  0  0  0  0
    2.9120   -1.8080   -0.5058 C   0  0  0  0  0  0  0  0  0  0  0  0
    4.0634   -0.9384   -0.0756 C   0  0  0  0  0  0  0  0  0  0  0  0
    3.8296    0.1346   -0.2413 H   0  0  0  0  0  0  0  0  0  0  0  0
    4.9810   -1.1823   -0.6418 H   0  0  0  0  0  0  0  0  0  0  0  0
    4.2871   -1.0491    1.0057 H   0  0  0  0  0  0  0  0  0  0  0  0
   -0.7755   -2.4286    0.5060 C   0  0  0  0  0  0  0  0  0  0  0  0
   -1.6316   -2.4760   -0.1950 H   0  0  0  0  0  0  0  0  0  0  0  0
   -0.8794   -1.5089    1.1099 H   0  0  0  0  0  0  0  0  0  0  0  0
   -0.8854   -3.2922    1.1961 H   0  0  0  0  0  0  0  0  0  0  0  0
  1 11  1  0  0  0  0
  2  3  1  0  0  0  0
  2  9  1  0  0  0  0
  4  1  1  0  0  0  0
  4  2  1  0  0  0  0
  5  7  1  0  0  0  0
  6  5  1  0  0  0  0
  8  5  1  0  0  0  0
  9 10  1  0  0  0  0
 11  5  1  0  0  0  0
 11  9  2  0  0  0  0
 12  1  1  0  0  0  0
 13 12  1  0  0  0  0
 13 25  1  0  0  0  0
 14 13  2  0  0  0  0
 15 14  1  0  0  0  0
 16 18  2  0  0  0  0
 16 14  1  0  0  0  0
 17 16  1  0  0  0  0
 18 20  1  0  0  0  0
 19 18  1  0  0  0  0
 20 21  1  0  0  0  0
 20 12  2  0  0  0  0
 21 24  1  0  0  0  0
 22 21  1  0  0  0  0
 23 21  1  0  0  0  0
 25 27  1  0  0  0  0
 25 28  1  0  0  0  0
 26 25  1  0  0  0  0
M  END
