4
 OpenBabel05122313113D

  9  8  0  0  0  0  0  0  0  0999 V2000
    2.1470   -3.0440   -1.8038 O   0  0  0  0  0  0  0  0  0  0  0  0
    0.3384   -4.0553   -1.1159 O   0  0  0  0  0  0  0  0  0  0  0  0
    0.9142   -3.1676   -1.7570 N   0  0  0  0  0  0  0  0  0  0  0  0
    0.0851   -2.1469   -2.4626 C   0  0  0  0  0  3  0  0  0  0  0  0
    0.7072   -1.8221   -3.3189 H   0  0  0  0  0  0  0  0  0  0  0  0
   -1.2646   -2.7070   -2.8889 C   0  0  0  0  0  0  0  0  0  0  0  0
   -1.8879   -2.9894   -2.0197 H   0  0  0  0  0  0  0  0  0  0  0  0
   -1.1601   -3.6069   -3.5344 H   0  0  0  0  0  0  0  0  0  0  0  0
   -1.8128   -1.9345   -3.4641 H   0  0  0  0  0  0  0  0  0  0  0  0
  1  3  2  0  0  0  0
  3  2  2  0  0  0  0
  4  3  1  0  0  0  0
  5  4  1  0  0  0  0
  6  4  1  0  0  0  0
  6  7  1  0  0  0  0
  8  6  1  0  0  0  0
  9  6  1  0  0  0  0
M  END
