4
 OpenBabel05122313113D

 43 45  0  0  0  0  0  0  0  0999 V2000
    1.2741    0.4517    0.5121 N   0  0  0  0  0  0  0  0  0  0  0  0
    1.7573    1.6534    0.8153 N   0  0  0  0  0  2  0  0  0  0  0  0
    0.7421    2.4690    0.6226 N   0  0  0  0  0  0  0  0  0  0  0  0
   -0.0598    0.4333    0.1219 C   0  0  0  0  0  3  0  0  0  0  0  0
    2.2225   -0.6706    0.6681 C   0  0  0  0  0  0  0  0  0  0  0  0
    1.7801   -1.5132    0.0975 H   0  0  0  0  0  0  0  0  0  0  0  0
    2.2109   -0.9504    1.7379 H   0  0  0  0  0  0  0  0  0  0  0  0
    3.6151   -0.3193    0.2024 C   0  0  0  0  0  0  0  0  0  0  0  0
    4.6496   -0.0946    1.1439 C   0  0  0  0  0  0  0  0  0  0  0  0
    5.9442    0.2034    0.6803 C   0  0  0  0  0  0  0  0  0  0  0  0
    6.7470    0.3741    1.4164 H   0  0  0  0  0  0  0  0  0  0  0  0
    6.2377    0.2979   -0.6907 C   0  0  0  0  0  0  0  0  0  0  0  0
    5.1876    0.0973   -1.6044 C   0  0  0  0  0  0  0  0  0  0  0  0
    5.3903    0.1796   -2.6850 H   0  0  0  0  0  0  0  0  0  0  0  0
    3.8793   -0.2093   -1.1893 C   0  0  0  0  0  0  0  0  0  0  0  0
    2.7886   -0.3940   -2.2117 C   0  0  0  0  0  0  0  0  0  0  0  0
    3.1985   -0.3771   -3.2393 H   0  0  0  0  0  0  0  0  0  0  0  0
    2.0142    0.3993   -2.1505 H   0  0  0  0  0  0  0  0  0  0  0  0
    2.2295   -1.3423   -2.0717 H   0  0  0  0  0  0  0  0  0  0  0  0
    7.6391    0.5814   -1.1715 C   0  0  0  0  0  0  0  0  0  0  0  0
    8.2483    1.0778   -0.3906 H   0  0  0  0  0  0  0  0  0  0  0  0
    7.6389    1.2265   -2.0730 H   0  0  0  0  0  0  0  0  0  0  0  0
    8.1633   -0.3588   -1.4488 H   0  0  0  0  0  0  0  0  0  0  0  0
    4.3874   -0.1428    2.6314 C   0  0  0  0  0  0  0  0  0  0  0  0
    5.2975    0.1240    3.2021 H   0  0  0  0  0  0  0  0  0  0  0  0
    4.0690   -1.1507    2.9725 H   0  0  0  0  0  0  0  0  0  0  0  0
    3.5866    0.5696    2.9215 H   0  0  0  0  0  0  0  0  0  0  0  0
   -0.3960    1.8116    0.2077 C   0  0  0  0  0  0  0  0  0  0  0  0
   -1.6370    2.5721   -0.0471 C   0  0  0  0  0  0  0  0  0  0  0  0
   -2.2669    2.5321   -1.3097 C   0  0  0  0  0  0  0  0  0  0  0  0
   -1.8421    1.8776   -2.0904 H   0  0  0  0  0  0  0  0  0  0  0  0
   -3.4308    3.2817   -1.5349 C   0  0  0  0  0  0  0  0  0  0  0  0
   -3.9139    3.2423   -2.5233 H   0  0  0  0  0  0  0  0  0  0  0  0
   -3.9794    4.0773   -0.5158 C   0  0  0  0  0  0  0  0  0  0  0  0
   -4.8929    4.6628   -0.7005 H   0  0  0  0  0  0  0  0  0  0  0  0
   -3.3593    4.1206    0.7433 C   0  0  0  0  0  0  0  0  0  0  0  0
   -3.7876    4.7326    1.5514 H   0  0  0  0  0  0  0  0  0  0  0  0
   -2.1962    3.3735    0.9762 C   0  0  0  0  0  0  0  0  0  0  0  0
   -1.7280    3.3901    1.9730 H   0  0  0  0  0  0  0  0  0  0  0  0
    0.9585    3.8963    0.8104 C   0  0  0  0  0  0  0  0  0  0  0  0
    2.0364    4.0918    0.6740 H   0  0  0  0  0  0  0  0  0  0  0  0
    0.6494    4.2132    1.8251 H   0  0  0  0  0  0  0  0  0  0  0  0
    0.3666    4.4532    0.0623 H   0  0  0  0  0  0  0  0  0  0  0  0
  1  5  1  0  0  0  0
  1  2  1  0  0  0  0
  3 40  1  0  0  0  0
  3  2  1  0  0  0  0
  4 28  2  0  0  0  0
  4  1  1  0  0  0  0
  5  7  1  0  0  0  0
  6  5  1  0  0  0  0
  8  5  1  0  0  0  0
  8  9  1  0  0  0  0
  9 24  1  0  0  0  0
 10  9  2  0  0  0  0
 10 11  1  0  0  0  0
 12 10  1  0  0  0  0
 13 15  1  0  0  0  0
 13 12  2  0  0  0  0
 14 13  1  0  0  0  0
 15  8  2  0  0  0  0
 16 18  1  0  0  0  0
 16 19  1  0  0  0  0
 16 15  1  0  0  0  0
 17 16  1  0  0  0  0
 20 12  1  0  0  0  0
 20 21  1  0  0  0  0
 22 20  1  0  0  0  0
 23 20  1  0  0  0  0
 24 27  1  0  0  0  0
 24 26  1  0  0  0  0
 24 25  1  0  0  0  0
 28  3  1  0  0  0  0
 29 28  1  0  0  0  0
 29 38  1  0  0  0  0
 30 29  2  0  0  0  0
 31 30  1  0  0  0  0
 32 30  1  0  0  0  0
 32 34  2  0  0  0  0
 33 32  1  0  0  0  0
 34 36  1  0  0  0  0
 35 34  1  0  0  0  0
 36 38  2  0  0  0  0
 36 37  1  0  0  0  0
 38 39  1  0  0  0  0
 40 42  1  0  0  0  0
 41 40  1  0  0  0  0
 43 40  1  0  0  0  0
M  END
