1
 OpenBabel05122313113D

 14 14  0  0  0  0  0  0  0  0999 V2000
    1.6378   -0.8713   -0.0155 C   0  0  0  0  0  2  0  0  0  0  0  0
    0.6851   -1.5918   -0.6731 C   0  0  0  0  0  3  0  0  0  0  0  0
   -0.5818   -1.5729   -1.0915 C   0  0  0  0  0  2  0  0  0  0  0  0
    3.0637   -0.9748    0.1805 C   0  0  0  0  0  0  0  0  0  0  0  0
    3.8209   -1.9619   -0.5059 C   0  0  0  0  0  0  0  0  0  0  0  0
    5.2065   -2.0400   -0.3353 C   0  0  0  0  0  0  0  0  0  0  0  0
    5.8664   -1.1493    0.5308 C   0  0  0  0  0  0  0  0  0  0  0  0
    5.1274   -0.1802    1.2315 C   0  0  0  0  0  0  0  0  0  0  0  0
    3.7415   -0.0941    1.0615 C   0  0  0  0  0  0  0  0  0  0  0  0
    3.2959   -2.6568   -1.1785 H   0  0  0  0  0  0  0  0  0  0  0  0
    5.7809   -2.8054   -0.8792 H   0  0  0  0  0  0  0  0  0  0  0  0
    6.9562   -1.2180    0.6673 H   0  0  0  0  0  0  0  0  0  0  0  0
    5.6382    0.5071    1.9231 H   0  0  0  0  0  0  0  0  0  0  0  0
    3.1482    0.6403    1.6253 H   0  0  0  0  0  0  0  0  0  0  0  0
  1  4  1  0  0  0  0
  2  1  1  0  0  0  0
  3  2  2  0  0  0  0
  4  9  1  0  0  0  0
  5  6  1  0  0  0  0
  5  4  2  0  0  0  0
  6  7  2  0  0  0  0
  7 12  1  0  0  0  0
  7  8  1  0  0  0  0
  8 13  1  0  0  0  0
  9  8  2  0  0  0  0
  9 14  1  0  0  0  0
 10  5  1  0  0  0  0
 11  6  1  0  0  0  0
M  END
