3
 OpenBabel05122313113D

 28 27  0  0  0  0  0  0  0  0999 V2000
    2.7032    1.6100   -0.1860 P   0  0  0  0  0  4  0  0  0  0  0  0
    3.0977   -1.5049    0.4565 Si  0  0  0  0  0  0  0  0  0  0  0  0
    2.3606   -0.0775   -0.5602 C   0  0  0  0  0  3  0  0  0  0  0  0
    2.6405   -0.2227   -1.6293 H   0  0  0  0  0  0  0  0  0  0  0  0
    2.3370   -3.0962   -0.2179 C   0  0  0  0  0  0  0  0  0  0  0  0
    1.2394   -3.1032   -0.0580 H   0  0  0  0  0  0  0  0  0  0  0  0
    2.7737   -3.9865    0.2801 H   0  0  0  0  0  0  0  0  0  0  0  0
    2.5176   -3.1907   -1.3084 H   0  0  0  0  0  0  0  0  0  0  0  0
    2.7030   -1.3283    2.3016 C   0  0  0  0  0  0  0  0  0  0  0  0
    3.2770   -0.5115    2.7866 H   0  0  0  0  0  0  0  0  0  0  0  0
    2.9675   -2.2672    2.8308 H   0  0  0  0  0  0  0  0  0  0  0  0
    1.6209   -1.1423    2.4570 H   0  0  0  0  0  0  0  0  0  0  0  0
    4.9872   -1.6098    0.2541 C   0  0  0  0  0  0  0  0  0  0  0  0
    5.2759   -1.6436   -0.8171 H   0  0  0  0  0  0  0  0  0  0  0  0
    5.3747   -2.5338    0.7323 H   0  0  0  0  0  0  0  0  0  0  0  0
    5.5153   -0.7530    0.7209 H   0  0  0  0  0  0  0  0  0  0  0  0
    2.0508    2.1376    1.4314 C   0  0  0  0  0  0  0  0  0  0  0  0
    0.9443    2.1088    1.3834 H   0  0  0  0  0  0  0  0  0  0  0  0
    2.3998    3.1638    1.6590 H   0  0  0  0  0  0  0  0  0  0  0  0
    2.3934    1.4418    2.2193 H   0  0  0  0  0  0  0  0  0  0  0  0
    4.4859    2.0524   -0.1669 C   0  0  0  0  0  0  0  0  0  0  0  0
    4.9913    1.5013    0.6492 H   0  0  0  0  0  0  0  0  0  0  0  0
    4.6267    3.1410   -0.0170 H   0  0  0  0  0  0  0  0  0  0  0  0
    4.9451    1.7499   -1.1283 H   0  0  0  0  0  0  0  0  0  0  0  0
    1.9465    2.7281   -1.4141 C   0  0  0  0  0  0  0  0  0  0  0  0
    2.2532    2.4187   -2.4319 H   0  0  0  0  0  0  0  0  0  0  0  0
    2.2614    3.7744   -1.2319 H   0  0  0  0  0  0  0  0  0  0  0  0
    0.8458    2.6381   -1.3262 H   0  0  0  0  0  0  0  0  0  0  0  0
  1 21  1  0  0  0  0
  1 17  1  0  0  0  0
  2  9  1  0  0  0  0
  3  1  1  0  0  0  0
  3  2  1  0  0  0  0
  4  3  1  0  0  0  0
  5  6  1  0  0  0  0
  5  7  1  0  0  0  0
  5  2  1  0  0  0  0
  8  5  1  0  0  0  0
  9 12  1  0  0  0  0
  9 10  1  0  0  0  0
  9 11  1  0  0  0  0
 13  2  1  0  0  0  0
 13 16  1  0  0  0  0
 13 15  1  0  0  0  0
 14 13  1  0  0  0  0
 17 19  1  0  0  0  0
 17 20  1  0  0  0  0
 18 17  1  0  0  0  0
 21 23  1  0  0  0  0
 21 22  1  0  0  0  0
 24 21  1  0  0  0  0
 25 28  1  0  0  0  0
 25 27  1  0  0  0  0
 25  1  1  0  0  0  0
 26 25  1  0  0  0  0
M  END
