6
 OpenBabel05122313113D

 28 30  0  0  0  0  0  0  0  0999 V2000
    1.3110   -0.8792   -0.8983 C   0  0  0  0  0  0  0  0  0  0  0  0
    2.2456   -1.8261   -0.3763 C   0  0  0  0  0  0  0  0  0  0  0  0
    1.9943   -2.6136    0.3414 H   0  0  0  0  0  0  0  0  0  0  0  0
    3.5143   -1.5714   -0.9970 C   0  0  0  0  0  3  0  0  0  0  0  0
    4.4391   -2.1316   -0.8225 H   0  0  0  0  0  0  0  0  0  0  0  0
    3.3556   -0.4486   -1.8733 C   0  0  0  0  0  3  0  0  0  0  0  0
    4.1421    0.0024   -2.4899 H   0  0  0  0  0  0  0  0  0  0  0  0
    1.9949   -0.0101   -1.8215 C   0  0  0  0  0  3  0  0  0  0  0  0
    1.5503    0.8085   -2.3971 H   0  0  0  0  0  0  0  0  0  0  0  0
   -0.0591   -0.8746   -0.5984 N   0  0  0  0  0  0  0  0  0  0  0  0
   -0.6370   -1.9859   -0.0440 N   0  0  0  0  0  0  0  0  0  0  0  0
   -1.8934   -1.7192    0.1303 N   0  0  0  0  0  0  0  0  0  0  0  0
   -2.1764   -0.4377   -0.2980 C   0  0  0  0  0  0  0  0  0  0  0  0
   -0.9881    0.1150   -0.7722 C   0  0  0  0  0  0  0  0  0  0  0  0
   -0.7324    1.1007   -1.1680 H   0  0  0  0  0  0  0  0  0  0  0  0
   -3.5251    0.1358   -0.2176 C   0  0  0  0  0  0  0  0  0  0  0  0
   -4.5706   -0.6548    0.2941 C   0  0  0  0  0  0  0  0  0  0  0  0
   -4.3407   -1.6820    0.6141 H   0  0  0  0  0  0  0  0  0  0  0  0
   -5.8861   -0.1490    0.3965 C   0  0  0  0  0  0  0  0  0  0  0  0
   -6.9173   -0.9526    0.8541 N   0  0  0  0  0  0  0  0  0  0  0  0
   -6.1315    1.1814   -0.0267 C   0  0  0  0  0  0  0  0  0  0  0  0
   -7.1500    1.5946    0.0441 H   0  0  0  0  0  0  0  0  0  0  0  0
   -5.0887    1.9652   -0.5347 C   0  0  0  0  0  0  0  0  0  0  0  0
   -5.2994    2.9970   -0.8551 H   0  0  0  0  0  0  0  0  0  0  0  0
   -3.7861    1.4595   -0.6369 C   0  0  0  0  0  0  0  0  0  0  0  0
   -2.9790    2.0922   -1.0332 H   0  0  0  0  0  0  0  0  0  0  0  0
   -6.6531   -1.7730    1.3993 H   0  0  0  0  0  0  0  0  0  0  0  0
   -7.7531   -0.4814    1.1990 H   0  0  0  0  0  0  0  0  0  0  0  0
  1 10  1  0  0  0  0
  1  2  2  0  0  0  0
  2  3  1  0  0  0  0
  4  5  1  0  0  0  0
  4  2  1  0  0  0  0
  6  8  1  0  0  0  0
  6  4  1  0  0  0  0
  7  6  1  0  0  0  0
  8  1  1  0  0  0  0
  9  8  1  0  0  0  0
 10 11  1  0  0  0  0
 11 12  2  0  0  0  0
 13 16  1  0  0  0  0
 13 12  1  0  0  0  0
 14 10  1  0  0  0  0
 14 13  2  0  0  0  0
 15 14  1  0  0  0  0
 16 17  1  0  0  0  0
 17 19  2  0  0  0  0
 17 18  1  0  0  0  0
 19 20  1  0  0  0  0
 20 28  1  0  0  0  0
 20 27  1  0  0  0  0
 21 22  1  0  0  0  0
 21 19  1  0  0  0  0
 23 21  2  0  0  0  0
 24 23  1  0  0  0  0
 25 23  1  0  0  0  0
 25 16  2  0  0  0  0
 26 25  1  0  0  0  0
M  END
