6
 OpenBabel05122313113D

 45 47  0  0  0  0  0  0  0  0999 V2000
   -0.1099   -1.9774   -2.4900 Cl  0  0  0  0  0  0  0  0  0  0  0  0
   -2.6148   -2.7630    2.3155 Cl  0  0  0  0  0  0  0  0  0  0  0  0
   -1.5284    2.9839    2.4615 Cl  0  0  0  0  0  0  0  0  0  0  0  0
    0.1535    1.8579   -2.6075 Cl  0  0  0  0  0  0  0  0  0  0  0  0
    0.3096   -0.1265    0.1088 N   0  0  0  0  0  2  0  0  0  0  0  0
    1.4969   -0.1635    0.1687 C   0  0  0  0  0  1  0  0  0  0  0  0
   -1.0368    0.0458   -0.0602 C   0  0  0  0  0  0  0  0  0  0  0  0
   -1.8920   -1.0817   -0.1521 C   0  0  0  0  0  0  0  0  0  0  0  0
   -3.2688   -0.8637   -0.2868 C   0  0  0  0  0  0  0  0  0  0  0  0
   -3.9206   -1.7468   -0.3467 H   0  0  0  0  0  0  0  0  0  0  0  0
   -3.8286    0.4303   -0.3334 C   0  0  0  0  0  0  0  0  0  0  0  0
   -5.3543    0.5922   -0.4248 C   0  0  0  0  0  0  0  0  0  0  0  0
   -5.8778   -0.1446   -1.6780 C   0  0  0  0  0  0  0  0  0  0  0  0
   -5.4277    0.2727   -2.6012 H   0  0  0  0  0  0  0  0  0  0  0  0
   -6.9796   -0.0388   -1.7526 H   0  0  0  0  0  0  0  0  0  0  0  0
   -5.6480   -1.2281   -1.6489 H   0  0  0  0  0  0  0  0  0  0  0  0
   -5.9861   -0.0239    0.8457 C   0  0  0  0  0  0  0  0  0  0  0  0
   -5.7282   -1.0959    0.9566 H   0  0  0  0  0  0  0  0  0  0  0  0
   -7.0918    0.0588    0.8061 H   0  0  0  0  0  0  0  0  0  0  0  0
   -5.6318    0.5008    1.7558 H   0  0  0  0  0  0  0  0  0  0  0  0
   -5.7743    2.0691   -0.5142 C   0  0  0  0  0  0  0  0  0  0  0  0
   -5.4570    2.6438    0.3791 H   0  0  0  0  0  0  0  0  0  0  0  0
   -6.8783    2.1407   -0.5796 H   0  0  0  0  0  0  0  0  0  0  0  0
   -5.3538    2.5639   -1.4129 H   0  0  0  0  0  0  0  0  0  0  0  0
   -2.9491    1.5273   -0.2668 C   0  0  0  0  0  0  0  0  0  0  0  0
   -3.3337    2.5541   -0.3105 H   0  0  0  0  0  0  0  0  0  0  0  0
   -1.5620    1.3587   -0.1379 C   0  0  0  0  0  0  0  0  0  0  0  0
   -0.6220    2.5097   -0.0716 C   0  0  0  0  0  0  0  0  0  0  0  0
   -0.5020    3.3108    1.0876 C   0  0  0  0  0  0  0  0  0  0  0  0
    0.4401    4.3464    1.1820 C   0  0  0  0  0  0  0  0  0  0  0  0
    0.5059    4.9321    2.1085 H   0  0  0  0  0  0  0  0  0  0  0  0
    1.2923    4.5970    0.0991 C   0  0  0  0  0  0  0  0  0  0  0  0
    2.0433    5.3973    0.1719 H   0  0  0  0  0  0  0  0  0  0  0  0
    1.2041    3.8325   -1.0715 C   0  0  0  0  0  0  0  0  0  0  0  0
    1.8697    4.0120   -1.9263 H   0  0  0  0  0  0  0  0  0  0  0  0
    0.2512    2.8060   -1.1459 C   0  0  0  0  0  0  0  0  0  0  0  0
   -1.3162   -2.4505   -0.0778 C   0  0  0  0  0  0  0  0  0  0  0  0
   -0.4509   -2.9514   -1.0823 C   0  0  0  0  0  0  0  0  0  0  0  0
    0.1451   -4.2179   -0.9918 C   0  0  0  0  0  0  0  0  0  0  0  0
    0.8234   -4.5505   -1.7885 H   0  0  0  0  0  0  0  0  0  0  0  0
   -0.1313   -5.0259    0.1181 C   0  0  0  0  0  0  0  0  0  0  0  0
    0.3347   -6.0190    0.1991 H   0  0  0  0  0  0  0  0  0  0  0  0
   -0.9943   -4.5794    1.1269 C   0  0  0  0  0  0  0  0  0  0  0  0
   -1.2178   -5.2004    2.0047 H   0  0  0  0  0  0  0  0  0  0  0  0
   -1.5734   -3.3056    1.0215 C   0  0  0  0  0  0  0  0  0  0  0  0
  1 38  1  0  0  0  0
  4 36  1  0  0  0  0
  5  6  1  0  0  0  0
  7  5  1  0  0  0  0
  8 37  1  0  0  0  0
  8  7  2  0  0  0  0
  9  8  1  0  0  0  0
 10  9  1  0  0  0  0
 11  9  2  0  0  0  0
 11 25  1  0  0  0  0
 12 11  1  0  0  0  0
 12 17  1  0  0  0  0
 13 16  1  0  0  0  0
 13 12  1  0  0  0  0
 14 13  1  0  0  0  0
 15 13  1  0  0  0  0
 17 18  1  0  0  0  0
 17 20  1  0  0  0  0
 19 17  1  0  0  0  0
 21 12  1  0  0  0  0
 21 22  1  0  0  0  0
 23 21  1  0  0  0  0
 24 21  1  0  0  0  0
 25 27  2  0  0  0  0
 26 25  1  0  0  0  0
 27 28  1  0  0  0  0
 27  7  1  0  0  0  0
 28 29  1  0  0  0  0
 29 30  2  0  0  0  0
 29  3  1  0  0  0  0
 30 31  1  0  0  0  0
 32 33  1  0  0  0  0
 32 30  1  0  0  0  0
 34 32  2  0  0  0  0
 35 34  1  0  0  0  0
 36 34  1  0  0  0  0
 36 28  2  0  0  0  0
 37 45  1  0  0  0  0
 38 39  1  0  0  0  0
 38 37  2  0  0  0  0
 39 41  2  0  0  0  0
 40 39  1  0  0  0  0
 41 42  1  0  0  0  0
 41 43  1  0  0  0  0
 43 44  1  0  0  0  0
 45 43  2  0  0  0  0
 45  2  1  0  0  0  0
M  END
