2
 OpenBabel05122313113D

 27 27  0  0  0  0  0  0  0  0999 V2000
   -6.9444   -1.1958   -0.0084 Si  0  0  0  0  0  0  0  0  0  0  0  0
    1.4617    1.0036    0.0430 C   0  0  0  0  0  3  0  0  0  0  0  0
    0.3223    1.4933    0.0386 C   0  0  0  0  0  0  0  0  0  0  0  0
   -1.0044    2.0154    0.0297 C   0  0  0  0  0  0  0  0  0  0  0  0
   -1.2459    3.4161    0.0275 C   0  0  0  0  0  0  0  0  0  0  0  0
   -0.3854    4.1007    0.0338 H   0  0  0  0  0  0  0  0  0  0  0  0
   -2.5538    3.9159    0.0171 C   0  0  0  0  0  0  0  0  0  0  0  0
   -2.7192    5.0043    0.0153 H   0  0  0  0  0  0  0  0  0  0  0  0
   -3.6546    3.0499    0.0089 C   0  0  0  0  0  0  0  0  0  0  0  0
   -4.6819    3.4406    0.0008 H   0  0  0  0  0  0  0  0  0  0  0  0
   -3.4449    1.6468    0.0113 C   0  0  0  0  0  0  0  0  0  0  0  0
   -2.1231    1.1463    0.0216 C   0  0  0  0  0  0  0  0  0  0  0  0
   -1.9608    0.0594    0.0235 H   0  0  0  0  0  0  0  0  0  0  0  0
   -4.5535    0.7463    0.0041 C   0  0  0  0  0  0  0  0  0  0  0  0
   -5.5122   -0.0341   -0.0018 C   0  0  0  0  0  0  0  0  0  0  0  0
   -6.4859   -2.7185   -1.0333 C   0  0  0  0  0  0  0  0  0  0  0  0
   -7.3274   -3.4417   -1.0581 H   0  0  0  0  0  0  0  0  0  0  0  0
   -6.2433   -2.4344   -2.0772 H   0  0  0  0  0  0  0  0  0  0  0  0
   -5.6018   -3.2323   -0.6046 H   0  0  0  0  0  0  0  0  0  0  0  0
   -8.4354   -0.3176   -0.7716 C   0  0  0  0  0  0  0  0  0  0  0  0
   -9.3187   -0.9893   -0.7900 H   0  0  0  0  0  0  0  0  0  0  0  0
   -8.7019    0.5872   -0.1887 H   0  0  0  0  0  0  0  0  0  0  0  0
   -8.2190   -0.0019   -1.8121 H   0  0  0  0  0  0  0  0  0  0  0  0
   -7.3277   -1.7031    1.7735 C   0  0  0  0  0  0  0  0  0  0  0  0
   -8.1867   -2.4052    1.8042 H   0  0  0  0  0  0  0  0  0  0  0  0
   -6.4549   -2.2037    2.2392 H   0  0  0  0  0  0  0  0  0  0  0  0
   -7.5823   -0.8179    2.3905 H   0  0  0  0  0  0  0  0  0  0  0  0
  1 15  1  0  0  0  0
  1 24  1  0  0  0  0
  3  2  3  0  0  0  0
  4  3  1  0  0  0  0
  5  4  1  0  0  0  0
  5  6  1  0  0  0  0
  7  5  2  0  0  0  0
  8  7  1  0  0  0  0
  9 11  2  0  0  0  0
  9  7  1  0  0  0  0
 10  9  1  0  0  0  0
 11 12  1  0  0  0  0
 12 13  1  0  0  0  0
 12  4  2  0  0  0  0
 14 11  1  0  0  0  0
 15 14  3  0  0  0  0
 16 19  1  0  0  0  0
 16  1  1  0  0  0  0
 17 16  1  0  0  0  0
 18 16  1  0  0  0  0
 20 22  1  0  0  0  0
 20  1  1  0  0  0  0
 21 20  1  0  0  0  0
 23 20  1  0  0  0  0
 24 25  1  0  0  0  0
 24 26  1  0  0  0  0
 24 27  1  0  0  0  0
M  END
