1
 OpenBabel05122313113D

 15 15  0  0  0  0  0  0  0  0999 V2000
   -0.3426   -0.1397   -0.0468 C   0  0  0  0  0  3  0  0  0  0  0  0
   -1.5567    0.1131   -0.0320 C   0  0  0  0  0  0  0  0  0  0  0  0
   -2.9450    0.4376   -0.0117 C   0  0  0  0  0  0  0  0  0  0  0  0
   -3.3818    1.7896    0.0335 C   0  0  0  0  0  0  0  0  0  0  0  0
   -2.6272    2.5898    0.0512 H   0  0  0  0  0  0  0  0  0  0  0  0
   -4.7463    2.1018    0.0545 C   0  0  0  0  0  0  0  0  0  0  0  0
   -5.0633    3.1556    0.0894 H   0  0  0  0  0  0  0  0  0  0  0  0
   -5.7136    1.0891    0.0314 C   0  0  0  0  0  0  0  0  0  0  0  0
   -6.7858    1.3306    0.0477 H   0  0  0  0  0  0  0  0  0  0  0  0
   -5.3073   -0.2686   -0.0140 C   0  0  0  0  0  0  0  0  0  0  0  0
   -3.9298   -0.5808   -0.0351 C   0  0  0  0  0  0  0  0  0  0  0  0
   -3.6133   -1.6323   -0.0700 H   0  0  0  0  0  0  0  0  0  0  0  0
   -6.2832   -1.3150   -0.0379 C   0  0  0  0  0  0  0  0  0  0  0  0
   -7.1215   -2.2093   -0.0581 C   0  0  0  0  0  0  0  0  0  0  0  0
   -7.8585   -2.9993   -0.0761 H   0  0  0  0  0  0  0  0  0  0  0  0
  1  2  3  0  0  0  0
  2  3  1  0  0  0  0
  3  4  1  0  0  0  0
  4  5  1  0  0  0  0
  4  6  2  0  0  0  0
  6  7  1  0  0  0  0
  8  9  1  0  0  0  0
  8  6  1  0  0  0  0
 10  8  2  0  0  0  0
 11 10  1  0  0  0  0
 11  3  2  0  0  0  0
 12 11  1  0  0  0  0
 13 10  1  0  0  0  0
 14 13  3  0  0  0  0
 15 14  1  0  0  0  0
M  END
