18
 OpenBabel05122313113D

 42 44  0  0  0  0  0  0  0  0999 V2000
    0.0993    2.5130   -0.1670 N   0  0  0  0  0  0  0  0  0  0  0  0
    5.1283   -2.1378   -0.1583 O   0  0  0  0  0  0  0  0  0  0  0  0
    4.5079   -1.1033   -1.9838 O   0  0  0  0  0  0  0  0  0  0  0  0
    2.3366    1.5762    1.5593 N   0  0  0  0  0  0  0  0  0  0  0  0
   -1.7783    1.4713    0.0534 N   0  0  0  0  0  0  0  0  0  0  0  0
    4.5280   -1.2553   -0.7645 N   0  0  0  0  0  0  0  0  0  0  0  0
   -0.8296    3.4618    0.2361 C   0  0  0  0  0  0  0  0  0  0  0  0
   -0.5673    4.5114    0.3987 H   0  0  0  0  0  0  0  0  0  0  0  0
    3.7756   -0.2663    0.0505 C   0  0  0  0  0  0  0  0  0  0  0  0
    2.9955    0.5650    2.1449 C   0  0  0  0  0  0  0  0  0  0  0  0
    2.9386    0.5140    3.2460 H   0  0  0  0  0  0  0  0  0  0  0  0
    3.7286   -0.4016    1.4369 C   0  0  0  0  0  0  0  0  0  0  0  0
    4.2420   -1.2393    1.9255 H   0  0  0  0  0  0  0  0  0  0  0  0
    2.3655    1.6575    0.2171 C   0  0  0  0  0  0  0  0  0  0  0  0
   -2.6464   -0.5669    1.1264 C   0  0  0  0  0  0  0  0  0  0  0  0
    3.0894    0.7642   -0.5941 C   0  0  0  0  0  0  0  0  0  0  0  0
    3.1093    0.8289   -1.6899 H   0  0  0  0  0  0  0  0  0  0  0  0
   -0.4637    1.2700   -0.2827 C   0  0  0  0  0  2  0  0  0  0  0  0
   -2.7462    0.4091    0.1076 C   0  0  0  0  0  0  0  0  0  0  0  0
    1.5243    2.7589   -0.3989 C   0  0  0  0  0  0  0  0  0  0  0  0
    1.7771    3.7267    0.0752 H   0  0  0  0  0  0  0  0  0  0  0  0
    1.7175    2.8359   -1.4878 H   0  0  0  0  0  0  0  0  0  0  0  0
   -2.0242    2.8026    0.3751 C   0  0  0  0  0  0  0  0  0  0  0  0
   -3.0094    3.1548    0.6935 H   0  0  0  0  0  0  0  0  0  0  0  0
   -3.7616    0.3735   -0.8755 C   0  0  0  0  0  0  0  0  0  0  0  0
   -1.5369   -0.5647    2.1457 C   0  0  0  0  0  0  0  0  0  0  0  0
   -0.6605   -1.1344    1.7592 H   0  0  0  0  0  0  0  0  0  0  0  0
   -1.8660   -1.0530    3.0833 H   0  0  0  0  0  0  0  0  0  0  0  0
   -1.1776    0.4552    2.3826 H   0  0  0  0  0  0  0  0  0  0  0  0
   -4.7016   -0.6682   -0.8110 C   0  0  0  0  0  0  0  0  0  0  0  0
   -5.4957   -0.7121   -1.5735 H   0  0  0  0  0  0  0  0  0  0  0  0
   -3.6140   -1.5881    1.1388 C   0  0  0  0  0  0  0  0  0  0  0  0
   -3.5524   -2.3576    1.9248 H   0  0  0  0  0  0  0  0  0  0  0  0
   -3.8165    1.4022   -1.9765 C   0  0  0  0  0  0  0  0  0  0  0  0
   -4.1369    2.3983   -1.6053 H   0  0  0  0  0  0  0  0  0  0  0  0
   -4.5289    1.0966   -2.7656 H   0  0  0  0  0  0  0  0  0  0  0  0
   -2.8201    1.5433   -2.4429 H   0  0  0  0  0  0  0  0  0  0  0  0
   -4.6453   -1.6599    0.1862 C   0  0  0  0  0  0  0  0  0  0  0  0
   -5.6391   -2.7934    0.2089 C   0  0  0  0  0  0  0  0  0  0  0  0
   -6.5924   -2.5135   -0.2804 H   0  0  0  0  0  0  0  0  0  0  0  0
   -5.8615   -3.1207    1.2437 H   0  0  0  0  0  0  0  0  0  0  0  0
   -5.2384   -3.6775   -0.3320 H   0  0  0  0  0  0  0  0  0  0  0  0
  1  7  1  0  0  0  0
  3  6  2  0  0  0  0
  4 10  1  0  0  0  0
  5 19  1  0  0  0  0
  5 23  1  0  0  0  0
  6  2  2  0  0  0  0
  6  9  1  0  0  0  0
  7 23  2  0  0  0  0
  7  8  1  0  0  0  0
  9 12  1  0  0  0  0
 10 11  1  0  0  0  0
 12 13  1  0  0  0  0
 12 10  2  0  0  0  0
 14  4  2  0  0  0  0
 15 32  1  0  0  0  0
 15 26  1  0  0  0  0
 16  9  2  0  0  0  0
 16 14  1  0  0  0  0
 17 16  1  0  0  0  0
 18  1  1  0  0  0  0
 18  5  1  0  0  0  0
 19 15  2  0  0  0  0
 20  1  1  0  0  0  0
 20 21  1  0  0  0  0
 20 14  1  0  0  0  0
 22 20  1  0  0  0  0
 23 24  1  0  0  0  0
 25 30  2  0  0  0  0
 25 19  1  0  0  0  0
 26 29  1  0  0  0  0
 26 28  1  0  0  0  0
 27 26  1  0  0  0  0
 30 38  1  0  0  0  0
 31 30  1  0  0  0  0
 32 33  1  0  0  0  0
 34 35  1  0  0  0  0
 34 25  1  0  0  0  0
 36 34  1  0  0  0  0
 37 34  1  0  0  0  0
 38 39  1  0  0  0  0
 38 32  2  0  0  0  0
 39 41  1  0  0  0  0
 40 39  1  0  0  0  0
 42 39  1  0  0  0  0
M  END
