1,2,3
 OpenBabel05122313063D

 32 33  0  0  0  0  0  0  0  0999 V2000
   -0.5911    2.4325   -0.1007 Se  0  0  0  0  0  1  0  0  0  0  0  0
    0.8835   -2.1395    0.3324 Se  0  0  0  0  0  1  0  0  0  0  0  0
    2.1075    0.9156    0.0340 N   0  0  0  0  0  2  0  0  0  0  0  0
    3.2465    0.3082   -0.0310 N   0  0  0  0  0  2  0  0  0  0  0  0
    1.1434    3.1350    0.0174 C   0  0  0  0  0  0  0  0  0  0  0  0
    1.2539    4.6428    0.0212 C   0  0  0  0  0  0  0  0  0  0  0  0
    2.6594    5.1362   -0.3351 C   0  0  0  0  0  0  0  0  0  0  0  0
    3.6941    4.3739    0.4916 C   0  0  0  0  0  0  0  0  0  0  0  0
    3.6547    2.8740    0.1833 C   0  0  0  0  0  0  0  0  0  0  0  0
    2.2512    2.3156    0.0962 C   0  0  0  0  0  0  0  0  0  0  0  0
    2.7276   -2.1366    0.1060 C   0  0  0  0  0  0  0  0  0  0  0  0
    3.3077   -3.5444    0.1023 C   0  0  0  0  0  0  0  0  0  0  0  0
    4.8189   -3.6047    0.3303 C   0  0  0  0  0  0  0  0  0  0  0  0
    5.5114   -2.5987   -0.5863 C   0  0  0  0  0  0  0  0  0  0  0  0
    5.0593   -1.1840   -0.2328 C   0  0  0  0  0  0  0  0  0  0  0  0
    3.5447   -1.0136   -0.0640 C   0  0  0  0  0  0  0  0  0  0  0  0
    0.4935    5.0669   -0.6681 H   0  0  0  0  0  0  0  0  0  0  0  0
    0.9733    5.0152    1.0339 H   0  0  0  0  0  0  0  0  0  0  0  0
    2.8501    4.9666   -1.4179 H   0  0  0  0  0  0  0  0  0  0  0  0
    2.7325    6.2303   -0.1638 H   0  0  0  0  0  0  0  0  0  0  0  0
    3.4830    4.5376    1.5717 H   0  0  0  0  0  0  0  0  0  0  0  0
    4.7170    4.7629    0.3094 H   0  0  0  0  0  0  0  0  0  0  0  0
    4.2219    2.2944    0.9400 H   0  0  0  0  0  0  0  0  0  0  0  0
    4.1791    2.6530   -0.7742 H   0  0  0  0  0  0  0  0  0  0  0  0
    3.0692   -4.0081   -0.8829 H   0  0  0  0  0  0  0  0  0  0  0  0
    2.7701   -4.1635    0.8510 H   0  0  0  0  0  0  0  0  0  0  0  0
    5.0503   -3.3611    1.3908 H   0  0  0  0  0  0  0  0  0  0  0  0
    5.1821   -4.6382    0.1528 H   0  0  0  0  0  0  0  0  0  0  0  0
    5.2498   -2.8286   -1.6434 H   0  0  0  0  0  0  0  0  0  0  0  0
    6.6158   -2.6743   -0.5106 H   0  0  0  0  0  0  0  0  0  0  0  0
    5.3958   -0.4524   -0.9950 H   0  0  0  0  0  0  0  0  0  0  0  0
    5.5439   -0.8652    0.7180 H   0  0  0  0  0  0  0  0  0  0  0  0
  1  5  1  0  0  0  0
  3 10  1  0  0  0  0
  4  3  1  0  0  0  0
  5  6  1  0  0  0  0
  5 10  2  0  0  0  0
  6 18  1  0  0  0  0
  7 20  1  0  0  0  0
  7  6  1  0  0  0  0
  7  8  1  0  0  0  0
  8 21  1  0  0  0  0
  9  8  1  0  0  0  0
  9 23  1  0  0  0  0
 10  9  1  0  0  0  0
 11  2  1  0  0  0  0
 12 11  1  0  0  0  0
 12 13  1  0  0  0  0
 12 26  1  0  0  0  0
 13 27  1  0  0  0  0
 14 30  1  0  0  0  0
 14 15  1  0  0  0  0
 14 13  1  0  0  0  0
 15 16  1  0  0  0  0
 15 32  1  0  0  0  0
 16  4  1  0  0  0  0
 16 11  2  0  0  0  0
 17  6  1  0  0  0  0
 19  7  1  0  0  0  0
 22  8  1  0  0  0  0
 24  9  1  0  0  0  0
 25 12  1  0  0  0  0
 28 13  1  0  0  0  0
 29 14  1  0  0  0  0
 31 15  1  0  0  0  0
M  END
