1
 OpenBabel05122313063D

 43 42  0  0  0  0  0  0  0  0999 V2000
    0.7638    0.5906    0.1124 Si  0  0  0  0  0  3  0  0  0  0  0  0
   -0.1096    0.1006   -1.3090 H   0  0  0  0  0  0  0  0  0  0  0  0
    0.8681    2.1119    0.0961 H   0  0  0  0  0  0  0  0  0  0  0  0
    3.4012    1.1793    1.3366 Si  0  0  0  0  0  0  0  0  0  0  0  0
    2.8613   -1.8275    0.3810 Si  0  0  0  0  0  0  0  0  0  0  0  0
    3.1586    0.5082   -1.7781 Si  0  0  0  0  0  0  0  0  0  0  0  0
    2.5681    0.0479    0.0049 C   0  0  0  0  0  0  0  0  0  0  0  0
    2.2824    1.2563    2.8756 C   0  0  0  0  0  0  0  0  0  0  0  0
    2.0920    0.2579    3.3127 H   0  0  0  0  0  0  0  0  0  0  0  0
    1.2982    1.7217    2.6513 H   0  0  0  0  0  0  0  0  0  0  0  0
    2.7668    1.8864    3.6508 H   0  0  0  0  0  0  0  0  0  0  0  0
    5.1166    0.5696    1.8659 C   0  0  0  0  0  0  0  0  0  0  0  0
    5.8225    0.5546    1.0123 H   0  0  0  0  0  0  0  0  0  0  0  0
    5.1022   -0.4391    2.3205 H   0  0  0  0  0  0  0  0  0  0  0  0
    5.5165    1.2761    2.6229 H   0  0  0  0  0  0  0  0  0  0  0  0
    3.6341    2.9825    0.7835 C   0  0  0  0  0  0  0  0  0  0  0  0
    4.0694    3.5432    1.6373 H   0  0  0  0  0  0  0  0  0  0  0  0
    2.6726    3.4642    0.5197 H   0  0  0  0  0  0  0  0  0  0  0  0
    4.3259    3.0929   -0.0740 H   0  0  0  0  0  0  0  0  0  0  0  0
    4.6189   -2.3485   -0.1273 C   0  0  0  0  0  0  0  0  0  0  0  0
    4.7783   -3.3923    0.2153 H   0  0  0  0  0  0  0  0  0  0  0  0
    5.4114   -1.7214    0.3228 H   0  0  0  0  0  0  0  0  0  0  0  0
    4.7550   -2.3410   -1.2273 H   0  0  0  0  0  0  0  0  0  0  0  0
    2.6641   -2.2110    2.2288 C   0  0  0  0  0  0  0  0  0  0  0  0
    1.6343   -1.9947    2.5759 H   0  0  0  0  0  0  0  0  0  0  0  0
    3.3828   -1.6798    2.8821 H   0  0  0  0  0  0  0  0  0  0  0  0
    2.8297   -3.3003    2.3657 H   0  0  0  0  0  0  0  0  0  0  0  0
    1.6792   -3.0077   -0.5083 C   0  0  0  0  0  0  0  0  0  0  0  0
    1.5142   -2.7743   -1.5751 H   0  0  0  0  0  0  0  0  0  0  0  0
    0.6932   -3.0367   -0.0110 H   0  0  0  0  0  0  0  0  0  0  0  0
    2.1176   -4.0263   -0.4471 H   0  0  0  0  0  0  0  0  0  0  0  0
    5.0392    0.7494   -1.8673 C   0  0  0  0  0  0  0  0  0  0  0  0
    5.5895   -0.1519   -1.5369 H   0  0  0  0  0  0  0  0  0  0  0  0
    5.3879    1.6077   -1.2604 H   0  0  0  0  0  0  0  0  0  0  0  0
    5.3184    0.9510   -2.9226 H   0  0  0  0  0  0  0  0  0  0  0  0
    2.6840   -0.8226   -3.0419 C   0  0  0  0  0  0  0  0  0  0  0  0
    2.9720   -0.4610   -4.0512 H   0  0  0  0  0  0  0  0  0  0  0  0
    1.5903   -1.0044   -3.0475 H   0  0  0  0  0  0  0  0  0  0  0  0
    3.1923   -1.7914   -2.8736 H   0  0  0  0  0  0  0  0  0  0  0  0
    2.3479    2.1021   -2.4285 C   0  0  0  0  0  0  0  0  0  0  0  0
    2.7828    2.3179   -3.4273 H   0  0  0  0  0  0  0  0  0  0  0  0
    2.5228    2.9819   -1.7816 H   0  0  0  0  0  0  0  0  0  0  0  0
    1.2526    1.9888   -2.5652 H   0  0  0  0  0  0  0  0  0  0  0  0
  2  1  1  0  0  0  0
  3  1  1  0  0  0  0
  4 12  1  0  0  0  0
  4  8  1  0  0  0  0
  5 24  1  0  0  0  0
  6  7  1  0  0  0  0
  7  1  1  0  0  0  0
  7  5  1  0  0  0  0
  7  4  1  0  0  0  0
  8  9  1  0  0  0  0
  8 11  1  0  0  0  0
 10  8  1  0  0  0  0
 12 14  1  0  0  0  0
 12 15  1  0  0  0  0
 13 12  1  0  0  0  0
 16  4  1  0  0  0  0
 16 17  1  0  0  0  0
 18 16  1  0  0  0  0
 19 16  1  0  0  0  0
 20 21  1  0  0  0  0
 20 22  1  0  0  0  0
 20  5  1  0  0  0  0
 23 20  1  0  0  0  0
 24 27  1  0  0  0  0
 24 25  1  0  0  0  0
 24 26  1  0  0  0  0
 28 31  1  0  0  0  0
 28 30  1  0  0  0  0
 28  5  1  0  0  0  0
 29 28  1  0  0  0  0
 32  6  1  0  0  0  0
 32 33  1  0  0  0  0
 32 34  1  0  0  0  0
 35 32  1  0  0  0  0
 36 39  1  0  0  0  0
 36  6  1  0  0  0  0
 37 36  1  0  0  0  0
 38 36  1  0  0  0  0
 40 42  1  0  0  0  0
 40  6  1  0  0  0  0
 41 40  1  0  0  0  0
 43 40  1  0  0  0  0
M  END
