1
 OpenBabel05122313063D

 13 12  0  0  0  0  0  0  0  0999 V2000
   -1.8585   -1.2234    1.7932 Si  0  0  0  0  0  3  0  0  0  0  0  0
   -1.7172   -0.1656    3.3898 C   0  0  0  0  0  0  0  0  0  0  0  0
   -0.7044   -2.7109    2.1292 C   0  0  0  0  0  0  0  0  0  0  0  0
   -3.5785   -2.0673    1.8821 C   0  0  0  0  0  0  0  0  0  0  0  0
   -2.1154    0.8643    3.3001 H   0  0  0  0  0  0  0  0  0  0  0  0
   -2.2778   -0.6751    4.2022 H   0  0  0  0  0  0  0  0  0  0  0  0
   -0.6605   -0.0872    3.7153 H   0  0  0  0  0  0  0  0  0  0  0  0
   -1.0100   -3.1831    3.0873 H   0  0  0  0  0  0  0  0  0  0  0  0
   -0.7921   -3.4746    1.3310 H   0  0  0  0  0  0  0  0  0  0  0  0
    0.3657   -2.4440    2.2090 H   0  0  0  0  0  0  0  0  0  0  0  0
   -4.4287   -1.3597    1.8995 H   0  0  0  0  0  0  0  0  0  0  0  0
   -3.7185   -2.7588    1.0268 H   0  0  0  0  0  0  0  0  0  0  0  0
   -3.6273   -2.6710    2.8136 H   0  0  0  0  0  0  0  0  0  0  0  0
  1  4  1  0  0  0  0
  1  3  1  0  0  0  0
  1  2  1  0  0  0  0
  2  7  1  0  0  0  0
  2  6  1  0  0  0  0
  3 10  1  0  0  0  0
  3  8  1  0  0  0  0
  4 11  1  0  0  0  0
  4 13  1  0  0  0  0
  5  2  1  0  0  0  0
  9  3  1  0  0  0  0
 12  4  1  0  0  0  0
M  END
