2
 OpenBabel05122313063D

 43 46  0  0  0  0  0  0  0  0999 V2000
    1.2161    0.0755    0.0147 Si  0  0  0  0  0  0  0  0  0  0  0  0
   -0.6790   -0.5256   -1.3010 Si  0  0  0  0  0  3  0  0  0  0  0  0
    1.1766    1.9300    0.4402 C   0  0  0  0  0  0  0  0  0  0  0  0
    1.1177    2.9110   -0.5807 C   0  0  0  0  0  0  0  0  0  0  0  0
    1.0062    4.2764   -0.2749 C   0  0  0  0  0  0  0  0  0  0  0  0
    0.9435    4.6944    1.0644 C   0  0  0  0  0  0  0  0  0  0  0  0
    1.0014    3.7395    2.0913 C   0  0  0  0  0  0  0  0  0  0  0  0
    1.1190    2.3751    1.7807 C   0  0  0  0  0  0  0  0  0  0  0  0
    2.7544   -0.3114   -1.0380 C   0  0  0  0  0  0  0  0  0  0  0  0
    3.5292    0.6712   -1.6930 C   0  0  0  0  0  0  0  0  0  0  0  0
    4.6332    0.3147   -2.4851 C   0  0  0  0  0  0  0  0  0  0  0  0
    4.9856   -1.0350   -2.6374 C   0  0  0  0  0  0  0  0  0  0  0  0
    4.2331   -2.0268   -1.9866 C   0  0  0  0  0  0  0  0  0  0  0  0
    3.1317   -1.6666   -1.1966 C   0  0  0  0  0  0  0  0  0  0  0  0
    1.4148   -0.9057    1.6277 C   0  0  0  0  0  0  0  0  0  0  0  0
    2.5964   -0.7449    2.3907 C   0  0  0  0  0  0  0  0  0  0  0  0
    2.7875   -1.4512    3.5875 C   0  0  0  0  0  0  0  0  0  0  0  0
    1.8019   -2.3436    4.0429 C   0  0  0  0  0  0  0  0  0  0  0  0
    0.6298   -2.5268    3.2941 C   0  0  0  0  0  0  0  0  0  0  0  0
    0.4414   -1.8124    2.0990 C   0  0  0  0  0  0  0  0  0  0  0  0
   -0.3406   -2.2961   -1.9308 C   0  0  0  0  0  0  0  0  0  0  0  0
   -0.5656    0.6012   -2.8440 C   0  0  0  0  0  0  0  0  0  0  0  0
    1.1437    2.6049   -1.6382 H   0  0  0  0  0  0  0  0  0  0  0  0
    0.9635    5.0185   -1.0873 H   0  0  0  0  0  0  0  0  0  0  0  0
    0.8502    5.7641    1.3066 H   0  0  0  0  0  0  0  0  0  0  0  0
    0.9548    4.0591    3.1440 H   0  0  0  0  0  0  0  0  0  0  0  0
    1.1650    1.6386    2.5989 H   0  0  0  0  0  0  0  0  0  0  0  0
    3.2811    1.7369   -1.5716 H   0  0  0  0  0  0  0  0  0  0  0  0
    5.2257    1.0986   -2.9822 H   0  0  0  0  0  0  0  0  0  0  0  0
    5.8505   -1.3150   -3.2583 H   0  0  0  0  0  0  0  0  0  0  0  0
    4.5087   -3.0875   -2.0926 H   0  0  0  0  0  0  0  0  0  0  0  0
    2.5586   -2.4552   -0.6821 H   0  0  0  0  0  0  0  0  0  0  0  0
    3.3835   -0.0582    2.0382 H   0  0  0  0  0  0  0  0  0  0  0  0
    3.7132   -1.3101    4.1668 H   0  0  0  0  0  0  0  0  0  0  0  0
    1.9529   -2.9013    4.9801 H   0  0  0  0  0  0  0  0  0  0  0  0
   -0.1427   -3.2329    3.6355 H   0  0  0  0  0  0  0  0  0  0  0  0
   -0.4779   -1.9742    1.5202 H   0  0  0  0  0  0  0  0  0  0  0  0
   -1.1489   -2.6189   -2.6197 H   0  0  0  0  0  0  0  0  0  0  0  0
    0.6181   -2.3226   -2.4880 H   0  0  0  0  0  0  0  0  0  0  0  0
   -0.2828   -3.0311   -1.1035 H   0  0  0  0  0  0  0  0  0  0  0  0
   -1.2698    0.2400   -3.6219 H   0  0  0  0  0  0  0  0  0  0  0  0
   -0.8237    1.6544   -2.6159 H   0  0  0  0  0  0  0  0  0  0  0  0
    0.4602    0.5734   -3.2684 H   0  0  0  0  0  0  0  0  0  0  0  0
  1  3  1  0  0  0  0
  1 15  1  0  0  0  0
  1 14  1  0  0  0  0
  2  1  1  0  0  0  0
  3  8  1  0  0  0  0
  4  5  1  0  0  0  0
  4  3  2  0  0  0  0
  5  6  2  0  0  0  0
  6 25  1  0  0  0  0
  6  7  1  0  0  0  0
  7 26  1  0  0  0  0
  8  7  2  0  0  0  0
  8 27  1  0  0  0  0
  9  1  1  0  0  0  0
 10 28  1  0  0  0  0
 10  9  2  0  0  0  0
 11 10  1  0  0  0  0
 12 11  2  0  0  0  0
 12 13  1  0  0  0  0
 13 14  2  0  0  0  0
 14  9  1  0  0  0  0
 14 32  1  0  0  0  0
 15 20  2  0  0  0  0
 15 16  1  0  0  0  0
 16 17  2  0  0  0  0
 17 18  1  0  0  0  0
 17 34  1  0  0  0  0
 18 35  1  0  0  0  0
 19 36  1  0  0  0  0
 19 18  2  0  0  0  0
 20 19  1  0  0  0  0
 21  2  1  0  0  0  0
 21 40  1  0  0  0  0
 22 42  1  0  0  0  0
 22  2  1  0  0  0  0
 23  4  1  0  0  0  0
 24  5  1  0  0  0  0
 29 11  1  0  0  0  0
 30 12  1  0  0  0  0
 31 13  1  0  0  0  0
 33 16  1  0  0  0  0
 37 20  1  0  0  0  0
 38 21  1  0  0  0  0
 39 21  1  0  0  0  0
 41 22  1  0  0  0  0
 43 22  1  0  0  0  0
M  ZBO  1   3   0
M  END
