1
 OpenBabel05122313063D

  4  3  0  0  0  0  0  0  0  0999 V2000
   -2.1217   -0.4249   -0.1168 Si  0  0  0  0  0  0  0  0  0  0  0  0
   -2.1476   -2.3326   -0.9480 Cl  0  0  0  0  0  0  0  0  0  0  0  0
   -3.2103    0.7580   -1.4780 Cl  0  0  0  0  0  0  0  0  0  0  0  0
   -3.3740   -0.5312    1.5646 Cl  0  0  0  0  0  0  0  0  0  0  0  0
  1  4  1  0  0  0  0
  2  1  1  0  0  0  0
  3  1  1  0  0  0  0
M  END
