3
 OpenBabel05122313063D

  7  6  0  0  0  0  0  0  0  0999 V2000
   -3.1891   -0.4939   -1.1113 Cl  0  0  0  0  0  0  0  0  0  0  0  0
   -2.3871    1.6183    1.3024 Cl  0  0  0  0  0  0  0  0  0  0  0  0
   -1.5360    0.7654   -0.5078 Si  0  0  0  0  0  3  0  0  0  0  0  0
   -1.7387    2.2245   -1.7082 C   0  0  0  0  0  0  0  0  0  0  0  0
   -2.7872    2.5816   -1.7281 H   0  0  0  0  0  0  0  0  0  0  0  0
   -1.4482    1.9074   -2.7309 H   0  0  0  0  0  0  0  0  0  0  0  0
   -1.0835    3.0686   -1.4089 H   0  0  0  0  0  0  0  0  0  0  0  0
  1  3  1  0  0  0  0
  3  2  1  0  0  0  0
  4  7  1  0  0  0  0
  4  3  1  0  0  0  0
  5  4  1  0  0  0  0
  6  4  1  0  0  0  0
M  END
