1
 OpenBabel05122313063D

 21 21  0  0  0  0  0  0  0  0999 V2000
   -1.5166    0.4608    0.3240 Si  0  0  0  0  0  3  0  0  0  0  0  0
   -1.8784    0.9256    2.1426 C   0  0  0  0  0  0  0  0  0  0  0  0
   -2.8142    1.5189    2.2120 H   0  0  0  0  0  0  0  0  0  0  0  0
   -1.0521    1.5592    2.5255 H   0  0  0  0  0  0  0  0  0  0  0  0
   -1.9719    0.0492    2.8125 H   0  0  0  0  0  0  0  0  0  0  0  0
   -1.6900    2.1162   -0.5996 C   0  0  0  0  0  0  0  0  0  0  0  0
   -1.3789    2.0514   -1.6605 H   0  0  0  0  0  0  0  0  0  0  0  0
   -1.1139    2.9274   -0.1163 H   0  0  0  0  0  0  0  0  0  0  0  0
   -2.7619    2.4060   -0.5760 H   0  0  0  0  0  0  0  0  0  0  0  0
   -2.9256   -0.4145   -0.2619 O   0  0  0  0  0  0  0  0  0  0  0  0
   -4.1937    0.0632   -0.3455 C   0  0  0  0  0  0  0  0  0  0  0  0
   -4.7053    0.4798   -1.5943 C   0  0  0  0  0  0  0  0  0  0  0  0
   -4.0394    0.4428   -2.4691 H   0  0  0  0  0  0  0  0  0  0  0  0
   -6.0293    0.9272   -1.7017 C   0  0  0  0  0  0  0  0  0  0  0  0
   -6.4147    1.2485   -2.6820 H   0  0  0  0  0  0  0  0  0  0  0  0
   -6.8632    0.9694   -0.5714 C   0  0  0  0  0  0  0  0  0  0  0  0
   -7.9017    1.3217   -0.6594 H   0  0  0  0  0  0  0  0  0  0  0  0
   -6.3575    0.5549    0.6714 C   0  0  0  0  0  0  0  0  0  0  0  0
   -7.0023    0.5795    1.5640 H   0  0  0  0  0  0  0  0  0  0  0  0
   -5.0341    0.1046    0.7895 C   0  0  0  0  0  0  0  0  0  0  0  0
   -4.6350   -0.2286    1.7586 H   0  0  0  0  0  0  0  0  0  0  0  0
  1  2  1  0  0  0  0
  2  3  1  0  0  0  0
  2  4  1  0  0  0  0
  2  5  1  0  0  0  0
  6  9  1  0  0  0  0
  6  8  1  0  0  0  0
  6  1  1  0  0  0  0
  7  6  1  0  0  0  0
 10  1  1  0  0  0  0
 11 10  1  0  0  0  0
 11 20  1  0  0  0  0
 12 11  2  0  0  0  0
 13 12  1  0  0  0  0
 14 12  1  0  0  0  0
 14 16  2  0  0  0  0
 15 14  1  0  0  0  0
 16 18  1  0  0  0  0
 17 16  1  0  0  0  0
 18 20  2  0  0  0  0
 18 19  1  0  0  0  0
 20 21  1  0  0  0  0
M  END
