1
 OpenBabel05122313063D

 38 37  0  0  0  0  0  0  0  0999 V2000
    0.8318    1.2934   -0.1595 Si  0  0  0  0  0  3  0  0  0  0  0  0
    0.9022    2.8511    0.9126 C   0  0  0  0  0  0  0  0  0  0  0  0
    0.3257    1.8417   -1.9041 C   0  0  0  0  0  0  0  0  0  0  0  0
   -2.0810   -0.0781    0.1170 P   0  0  0  0  0  4  0  0  0  0  0  0
   -0.7428    0.6171    0.4957 O   0  0  0  0  0  0  0  0  0  0  0  0
   -2.6947    0.0826   -1.4249 N   0  0  0  0  0  0  0  0  0  0  0  0
   -3.4262    1.2750   -1.8440 C   0  0  0  0  0  0  0  0  0  0  0  0
   -2.2534   -0.7779   -2.5244 C   0  0  0  0  0  0  0  0  0  0  0  0
   -3.2221    0.6853    1.0954 N   0  0  0  0  0  0  0  0  0  0  0  0
   -4.5919    0.1885    1.1223 C   0  0  0  0  0  0  0  0  0  0  0  0
   -2.8162    1.4252    2.2884 C   0  0  0  0  0  0  0  0  0  0  0  0
   -1.8797   -1.7222    0.3245 N   0  0  0  0  0  0  0  0  0  0  0  0
   -0.7845   -2.2688    1.1265 C   0  0  0  0  0  0  0  0  0  0  0  0
   -2.9491   -2.6650    0.0227 C   0  0  0  0  0  0  0  0  0  0  0  0
   -2.8222    1.8733   -2.5601 H   0  0  0  0  0  0  0  0  0  0  0  0
   -3.6623    1.9056   -0.9685 H   0  0  0  0  0  0  0  0  0  0  0  0
   -4.3757    0.9873   -2.3455 H   0  0  0  0  0  0  0  0  0  0  0  0
   -1.7524   -0.1679   -3.3054 H   0  0  0  0  0  0  0  0  0  0  0  0
   -3.1231   -1.2923   -2.9880 H   0  0  0  0  0  0  0  0  0  0  0  0
   -1.5232   -1.5256   -2.1691 H   0  0  0  0  0  0  0  0  0  0  0  0
   -5.2939    1.0337    1.2868 H   0  0  0  0  0  0  0  0  0  0  0  0
   -4.7589   -0.5566    1.9346 H   0  0  0  0  0  0  0  0  0  0  0  0
   -4.8550   -0.2829    0.1567 H   0  0  0  0  0  0  0  0  0  0  0  0
   -2.8829    0.8012    3.2088 H   0  0  0  0  0  0  0  0  0  0  0  0
   -3.4821    2.3048    2.4193 H   0  0  0  0  0  0  0  0  0  0  0  0
   -1.7773    1.7806    2.1788 H   0  0  0  0  0  0  0  0  0  0  0  0
    0.0582   -1.5560    1.1764 H   0  0  0  0  0  0  0  0  0  0  0  0
   -0.4045   -3.1862    0.6322 H   0  0  0  0  0  0  0  0  0  0  0  0
   -1.1201   -2.5289    2.1553 H   0  0  0  0  0  0  0  0  0  0  0  0
   -3.4298   -3.0521    0.9497 H   0  0  0  0  0  0  0  0  0  0  0  0
   -2.5394   -3.5320   -0.5390 H   0  0  0  0  0  0  0  0  0  0  0  0
   -3.7286   -2.1929   -0.6032 H   0  0  0  0  0  0  0  0  0  0  0  0
    0.0012    3.4865    0.7861 H   0  0  0  0  0  0  0  0  0  0  0  0
    1.7928    3.4451    0.6211 H   0  0  0  0  0  0  0  0  0  0  0  0
    1.0140    2.5860    1.9827 H   0  0  0  0  0  0  0  0  0  0  0  0
    0.1374    0.9758   -2.5687 H   0  0  0  0  0  0  0  0  0  0  0  0
    1.1788    2.4039   -2.3377 H   0  0  0  0  0  0  0  0  0  0  0  0
   -0.5592    2.5115   -1.9024 H   0  0  0  0  0  0  0  0  0  0  0  0
  1  5  1  0  0  0  0
  1  2  1  0  0  0  0
  2 35  1  0  0  0  0
  3 38  1  0  0  0  0
  3  1  1  0  0  0  0
  4 12  1  0  0  0  0
  4  5  1  0  0  0  0
  4  9  1  0  0  0  0
  6  4  1  0  0  0  0
  7  6  1  0  0  0  0
  7 16  1  0  0  0  0
  8 20  1  0  0  0  0
  8  6  1  0  0  0  0
  9 10  1  0  0  0  0
  9 11  1  0  0  0  0
 10 21  1  0  0  0  0
 10 22  1  0  0  0  0
 11 25  1  0  0  0  0
 11 24  1  0  0  0  0
 12 13  1  0  0  0  0
 13 27  1  0  0  0  0
 13 29  1  0  0  0  0
 14 12  1  0  0  0  0
 14 30  1  0  0  0  0
 15  7  1  0  0  0  0
 17  7  1  0  0  0  0
 18  8  1  0  0  0  0
 19  8  1  0  0  0  0
 23 10  1  0  0  0  0
 26 11  1  0  0  0  0
 28 13  1  0  0  0  0
 31 14  1  0  0  0  0
 32 14  1  0  0  0  0
 33  2  1  0  0  0  0
 34  2  1  0  0  0  0
 36  3  1  0  0  0  0
 37  3  1  0  0  0  0
M  END
