1
 OpenBabel05122313063D

 31 32  0  0  0  0  0  0  0  0999 V2000
    0.5723    0.5939   -0.2096 Si  0  0  0  0  0  3  0  0  0  0  0  0
    3.3511   -0.3384    0.7623 S   0  0  0  0  0  0  0  0  0  0  0  0
    1.8579   -0.6309    0.2860 O   0  0  0  0  0  0  0  0  0  0  0  0
    4.1184    0.4597   -0.2079 O   0  0  0  0  0  1  0  0  0  0  0  0
    3.4112   -0.0433    2.2030 O   0  0  0  0  0  1  0  0  0  0  0  0
    5.2648   -2.1499    0.9273 F   0  0  0  0  0  0  0  0  0  0  0  0
    3.2810   -2.9578    1.3449 F   0  0  0  0  0  0  0  0  0  0  0  0
    3.8683   -2.5134   -0.7111 F   0  0  0  0  0  0  0  0  0  0  0  0
    1.0899    2.2201   -2.5871 C   0  0  0  0  0  0  0  0  0  0  0  0
    1.5669    2.4746   -3.8836 C   0  0  0  0  0  0  0  0  0  0  0  0
    2.2639    1.4784   -4.5838 C   0  0  0  0  0  0  0  0  0  0  0  0
    2.4990    0.2406   -3.9646 C   0  0  0  0  0  0  0  0  0  0  0  0
    2.0206   -0.0019   -2.6680 C   0  0  0  0  0  0  0  0  0  0  0  0
    1.2855    0.9720   -1.9529 C   0  0  0  0  0  0  0  0  0  0  0  0
    2.2064    2.9215    0.5146 C   0  0  0  0  0  0  0  0  0  0  0  0
    2.5942    3.9834    1.3474 C   0  0  0  0  0  0  0  0  0  0  0  0
    1.9073    4.2322    2.5462 C   0  0  0  0  0  0  0  0  0  0  0  0
    0.8288    3.4104    2.9115 C   0  0  0  0  0  0  0  0  0  0  0  0
    0.4471    2.3542    2.0714 C   0  0  0  0  0  0  0  0  0  0  0  0
    1.1218    2.0846    0.8620 C   0  0  0  0  0  0  0  0  0  0  0  0
    3.9787   -2.1104    0.5682 C   0  0  0  0  0  0  0  0  0  0  0  0
    0.5793    3.0307   -2.0457 H   0  0  0  0  0  0  0  0  0  0  0  0
    1.4013    3.4610   -4.3445 H   0  0  0  0  0  0  0  0  0  0  0  0
    2.6403    1.6725   -5.6000 H   0  0  0  0  0  0  0  0  0  0  0  0
    3.0731   -0.5388   -4.4897 H   0  0  0  0  0  0  0  0  0  0  0  0
    2.2579   -0.9625   -2.1880 H   0  0  0  0  0  0  0  0  0  0  0  0
    2.7714    2.7270   -0.4091 H   0  0  0  0  0  0  0  0  0  0  0  0
    3.4456    4.6197    1.0595 H   0  0  0  0  0  0  0  0  0  0  0  0
    2.2152    5.0644    3.1981 H   0  0  0  0  0  0  0  0  0  0  0  0
    0.2860    3.5946    3.8522 H   0  0  0  0  0  0  0  0  0  0  0  0
   -0.4051    1.7128    2.3404 H   0  0  0  0  0  0  0  0  0  0  0  0
  1  3  1  0  0  0  0
  1 20  1  0  0  0  0
  2  5  1  0  0  0  0
  3  2  1  0  0  0  0
  4  2  1  0  0  0  0
  8 21  1  0  0  0  0
  9 22  1  0  0  0  0
  9 14  1  0  0  0  0
 10  9  2  0  0  0  0
 11 12  2  0  0  0  0
 11 10  1  0  0  0  0
 12 13  1  0  0  0  0
 13 26  1  0  0  0  0
 13 14  2  0  0  0  0
 14  1  1  0  0  0  0
 15 20  2  0  0  0  0
 15 16  1  0  0  0  0
 16 17  2  0  0  0  0
 17 18  1  0  0  0  0
 17 29  1  0  0  0  0
 18 30  1  0  0  0  0
 19 31  1  0  0  0  0
 19 18  2  0  0  0  0
 20 19  1  0  0  0  0
 21  2  1  0  0  0  0
 21  6  1  0  0  0  0
 21  7  1  0  0  0  0
 23 10  1  0  0  0  0
 24 11  1  0  0  0  0
 25 12  1  0  0  0  0
 27 15  1  0  0  0  0
 28 16  1  0  0  0  0
M  END
