2
 OpenBabel05122313063D

 40 42  0  0  0  0  0  0  0  0999 V2000
   -0.7726   -2.0042    1.5293 S   0  0  0  0  0  0  0  0  0  0  0  0
    1.0176    0.0690    0.1377 Si  0  0  0  0  0  3  0  0  0  0  0  0
    1.3207   -0.3663    1.9898 N   0  0  0  0  0  0  0  0  0  0  0  0
    0.4986   -1.3383    2.5007 C   0  0  0  0  0  0  0  0  0  0  0  0
    0.7461   -1.8259    3.8142 C   0  0  0  0  0  0  0  0  0  0  0  0
    0.0785   -2.6029    4.2117 H   0  0  0  0  0  0  0  0  0  0  0  0
    1.8040   -1.3211    4.5567 C   0  0  0  0  0  0  0  0  0  0  0  0
    1.9875   -1.6918    5.5766 H   0  0  0  0  0  0  0  0  0  0  0  0
    2.6498   -0.3331    3.9925 C   0  0  0  0  0  0  0  0  0  0  0  0
    3.5080    0.0758    4.5419 H   0  0  0  0  0  0  0  0  0  0  0  0
    2.3791    0.1042    2.7063 C   0  0  0  0  0  0  0  0  0  0  0  0
    3.0065    0.8471    2.1930 H   0  0  0  0  0  0  0  0  0  0  0  0
    2.4416   -0.9452   -0.6067 C   0  0  0  0  0  0  0  0  0  0  0  0
    2.1965   -2.2486   -1.0925 C   0  0  0  0  0  0  0  0  0  0  0  0
    1.1644   -2.6341   -1.0921 H   0  0  0  0  0  0  0  0  0  0  0  0
    3.2393   -3.0478   -1.5779 C   0  0  0  0  0  0  0  0  0  0  0  0
    3.0191   -4.0617   -1.9499 H   0  0  0  0  0  0  0  0  0  0  0  0
    4.5683   -2.5750   -1.6038 C   0  0  0  0  0  0  0  0  0  0  0  0
    4.8153   -1.2735   -1.1225 C   0  0  0  0  0  0  0  0  0  0  0  0
    5.8450   -0.8803   -1.1367 H   0  0  0  0  0  0  0  0  0  0  0  0
    3.7719   -0.4736   -0.6334 C   0  0  0  0  0  0  0  0  0  0  0  0
    4.0003    0.5447   -0.2772 H   0  0  0  0  0  0  0  0  0  0  0  0
    5.6807   -3.4298   -2.1565 C   0  0  0  0  0  0  0  0  0  0  0  0
    5.6076   -4.4757   -1.7954 H   0  0  0  0  0  0  0  0  0  0  0  0
    6.6779   -3.0365   -1.8780 H   0  0  0  0  0  0  0  0  0  0  0  0
    5.6376   -3.4707   -3.2662 H   0  0  0  0  0  0  0  0  0  0  0  0
    1.5606    1.8886    0.0440 C   0  0  0  0  0  0  0  0  0  0  0  0
    1.4874    2.8165    1.1064 C   0  0  0  0  0  0  0  0  0  0  0  0
    1.1936    2.4817    2.1136 H   0  0  0  0  0  0  0  0  0  0  0  0
    1.7691    4.1783    0.9132 C   0  0  0  0  0  0  0  0  0  0  0  0
    1.7012    4.8743    1.7652 H   0  0  0  0  0  0  0  0  0  0  0  0
    2.1303    4.6743   -0.3547 C   0  0  0  0  0  0  0  0  0  0  0  0
    2.2067    3.7526   -1.4205 C   0  0  0  0  0  0  0  0  0  0  0  0
    2.4853    4.1107   -2.4250 H   0  0  0  0  0  0  0  0  0  0  0  0
    1.9331    2.3928   -1.2267 C   0  0  0  0  0  0  0  0  0  0  0  0
    1.9943    1.7084   -2.0877 H   0  0  0  0  0  0  0  0  0  0  0  0
    2.4447    6.1329   -0.5696 C   0  0  0  0  0  0  0  0  0  0  0  0
    3.5327    6.2880   -0.7328 H   0  0  0  0  0  0  0  0  0  0  0  0
    2.1472    6.7491    0.3011 H   0  0  0  0  0  0  0  0  0  0  0  0
    1.9279    6.5311   -1.4665 H   0  0  0  0  0  0  0  0  0  0  0  0
  1  4  2  0  0  0  0
  2  3  1  0  0  0  0
  3  4  1  0  0  0  0
  3 11  1  0  0  0  0
  4  5  1  0  0  0  0
  5  6  1  0  0  0  0
  5  7  2  0  0  0  0
  7  8  1  0  0  0  0
  9 10  1  0  0  0  0
  9  7  1  0  0  0  0
 11  9  2  0  0  0  0
 12 11  1  0  0  0  0
 13  2  1  0  0  0  0
 14 15  1  0  0  0  0
 14 13  2  0  0  0  0
 16 14  1  0  0  0  0
 17 16  1  0  0  0  0
 18 16  2  0  0  0  0
 18 19  1  0  0  0  0
 19 21  2  0  0  0  0
 20 19  1  0  0  0  0
 21 13  1  0  0  0  0
 21 22  1  0  0  0  0
 23 25  1  0  0  0  0
 23 24  1  0  0  0  0
 23 18  1  0  0  0  0
 26 23  1  0  0  0  0
 27  2  1  0  0  0  0
 27 28  1  0  0  0  0
 28 29  1  0  0  0  0
 30 28  2  0  0  0  0
 30 31  1  0  0  0  0
 32 30  1  0  0  0  0
 33 35  1  0  0  0  0
 33 32  2  0  0  0  0
 34 33  1  0  0  0  0
 35 27  2  0  0  0  0
 36 35  1  0  0  0  0
 37 32  1  0  0  0  0
 37 39  1  0  0  0  0
 38 37  1  0  0  0  0
 40 37  1  0  0  0  0
M  END
