1
 OpenBabel05122313063D

 33 34  0  0  0  0  0  0  0  0999 V2000
    2.4729   -0.0000    0.2400 Si  0  0  1  0  0  3  0  0  0  0  0  0
    3.7367    1.2577    0.0355 N   0  0  0  0  0  0  0  0  0  0  0  0
    4.9749    0.6821   -0.2401 C   0  0  0  0  0  0  0  0  0  0  0  0
    5.8614    1.3020   -0.4118 H   0  0  0  0  0  0  0  0  0  0  0  0
    4.9749   -0.6821   -0.2402 C   0  0  0  0  0  0  0  0  0  0  0  0
    3.7367   -1.2578    0.0352 N   0  0  0  0  0  0  0  0  0  0  0  0
    3.6618   -2.7508    0.0954 C   0  0  0  0  0  0  0  0  0  0  0  0
    3.7611   -3.3100   -1.3372 C   0  0  0  0  0  0  0  0  0  0  0  0
    2.9121   -2.9547   -1.9530 H   0  0  0  0  0  0  0  0  0  0  0  0
    3.7413   -4.4183   -1.3234 H   0  0  0  0  0  0  0  0  0  0  0  0
    4.7030   -2.9902   -1.8261 H   0  0  0  0  0  0  0  0  0  0  0  0
    4.8128   -3.2970    0.9668 C   0  0  0  0  0  0  0  0  0  0  0  0
    4.7954   -2.8291    1.9712 H   0  0  0  0  0  0  0  0  0  0  0  0
    5.8110   -3.1249    0.5206 H   0  0  0  0  0  0  0  0  0  0  0  0
    4.6946   -4.3914    1.0909 H   0  0  0  0  0  0  0  0  0  0  0  0
    2.3446   -3.1995    0.7364 C   0  0  0  0  0  0  0  0  0  0  0  0
    2.2326   -2.7874    1.7582 H   0  0  0  0  0  0  0  0  0  0  0  0
    2.3291   -4.3046    0.8080 H   0  0  0  0  0  0  0  0  0  0  0  0
    1.4696   -2.8891    0.1404 H   0  0  0  0  0  0  0  0  0  0  0  0
    5.8614   -1.3020   -0.4121 H   0  0  0  0  0  0  0  0  0  0  0  0
    3.6617    2.7507    0.0958 C   0  0  0  0  0  0  0  0  0  0  0  0
    3.7610    3.3101   -1.3367 C   0  0  0  0  0  0  0  0  0  0  0  0
    2.9121    2.9549   -1.9527 H   0  0  0  0  0  0  0  0  0  0  0  0
    4.7030    2.9904   -1.8256 H   0  0  0  0  0  0  0  0  0  0  0  0
    3.7412    4.4184   -1.3228 H   0  0  0  0  0  0  0  0  0  0  0  0
    4.8127    3.2969    0.9672 C   0  0  0  0  0  0  0  0  0  0  0  0
    5.8109    3.1249    0.5210 H   0  0  0  0  0  0  0  0  0  0  0  0
    4.7954    2.8289    1.9716 H   0  0  0  0  0  0  0  0  0  0  0  0
    4.6945    4.3913    1.0914 H   0  0  0  0  0  0  0  0  0  0  0  0
    2.3445    3.1994    0.7368 C   0  0  0  0  0  0  0  0  0  0  0  0
    1.4695    2.8891    0.1408 H   0  0  0  0  0  0  0  0  0  0  0  0
    2.3291    4.3045    0.8086 H   0  0  0  0  0  0  0  0  0  0  0  0
    2.2325    2.7871    1.7586 H   0  0  0  0  0  0  0  0  0  0  0  0
  1  6  1  1  0  0  0
  1  3  1  0  0  0  0
  2 21  1  0  0  0  0
  2  1  1  0  0  0  0
  3  2  1  0  0  0  0
  4  3  1  0  0  0  0
  5  3  2  0  0  0  0
  5  6  1  0  0  0  0
  6  7  1  0  0  0  0
  7 16  1  0  0  0  0
  7 12  1  0  0  0  0
  8 10  1  0  0  0  0
  8  7  1  0  0  0  0
  9  8  1  0  0  0  0
 11  8  1  0  0  0  0
 12 15  1  0  0  0  0
 12 13  1  0  0  0  0
 14 12  1  0  0  0  0
 16 18  1  0  0  0  0
 16 17  1  0  0  0  0
 19 16  1  0  0  0  0
 20  5  1  0  0  0  0
 21 30  1  0  0  0  0
 21 26  1  0  0  0  0
 22 25  1  0  0  0  0
 22 21  1  0  0  0  0
 23 22  1  0  0  0  0
 24 22  1  0  0  0  0
 26 29  1  0  0  0  0
 26 28  1  0  0  0  0
 27 26  1  0  0  0  0
 30 32  1  0  0  0  0
 30 33  1  0  0  0  0
 31 30  1  0  0  0  0
M  ZBO  1   2   0
M  END
