1
 OpenBabel05122313063D

 30 31  0  0  0  0  0  0  0  0999 V2000
    0.2569    0.1863   -1.0219 Si  0  0  0  0  0  3  0  0  0  0  0  0
   -4.0823    5.5654   -0.9512 F   0  0  0  0  0  0  0  0  0  0  0  0
   -3.1636    5.8576    1.0121 F   0  0  0  0  0  0  0  0  0  0  0  0
   -4.7712    4.4066    0.7621 F   0  0  0  0  0  0  0  0  0  0  0  0
    7.0863    1.1727   -1.0185 F   0  0  0  0  0  0  0  0  0  0  0  0
    6.4719    3.1830   -0.4151 F   0  0  0  0  0  0  0  0  0  0  0  0
    6.6213    1.5931    1.0691 F   0  0  0  0  0  0  0  0  0  0  0  0
   -0.8488    1.7089   -0.6681 C   0  0  0  0  0  0  0  0  0  0  0  0
   -1.8054    2.1194   -1.6262 C   0  0  0  0  0  0  0  0  0  0  0  0
   -2.7024    3.1666   -1.3735 C   0  0  0  0  0  0  0  0  0  0  0  0
   -2.6552    3.8468   -0.1444 C   0  0  0  0  0  0  0  0  0  0  0  0
   -1.6961    3.4804    0.8159 C   0  0  0  0  0  0  0  0  0  0  0  0
   -0.8147    2.4227    0.5532 C   0  0  0  0  0  0  0  0  0  0  0  0
   -3.6634    4.9246    0.1662 C   0  0  0  0  0  0  0  0  0  0  0  0
    2.0751    0.7452   -0.7488 C   0  0  0  0  0  0  0  0  0  0  0  0
    2.4410    2.0633   -0.3935 C   0  0  0  0  0  0  0  0  0  0  0  0
    3.7845    2.4354   -0.2366 C   0  0  0  0  0  0  0  0  0  0  0  0
    4.8033    1.4920   -0.4484 C   0  0  0  0  0  0  0  0  0  0  0  0
    4.4679    0.1830   -0.8381 C   0  0  0  0  0  0  0  0  0  0  0  0
    3.1220   -0.1773   -0.9793 C   0  0  0  0  0  0  0  0  0  0  0  0
    6.2456    1.8630   -0.2098 C   0  0  0  0  0  0  0  0  0  0  0  0
    0.2087    0.1305   -2.5400 H   0  0  0  0  0  0  0  0  0  0  0  0
   -1.8468    1.6079   -2.6010 H   0  0  0  0  0  0  0  0  0  0  0  0
   -3.4364    3.4696   -2.1347 H   0  0  0  0  0  0  0  0  0  0  0  0
   -1.6439    4.0275    1.7688 H   0  0  0  0  0  0  0  0  0  0  0  0
   -0.0775    2.1490    1.3237 H   0  0  0  0  0  0  0  0  0  0  0  0
    1.6625    2.8266   -0.2426 H   0  0  0  0  0  0  0  0  0  0  0  0
    4.0471    3.4665    0.0418 H   0  0  0  0  0  0  0  0  0  0  0  0
    5.2654   -0.5498   -1.0304 H   0  0  0  0  0  0  0  0  0  0  0  0
    2.8712   -1.2089   -1.2774 H   0  0  0  0  0  0  0  0  0  0  0  0
  1 15  1  0  0  0  0
  1  8  1  0  0  0  0
  2 14  1  0  0  0  0
  5 21  1  0  0  0  0
  6 21  1  0  0  0  0
  8 13  1  0  0  0  0
  9 10  1  0  0  0  0
  9  8  2  0  0  0  0
 10 11  2  0  0  0  0
 11 14  1  0  0  0  0
 11 12  1  0  0  0  0
 12 25  1  0  0  0  0
 13 12  2  0  0  0  0
 13 26  1  0  0  0  0
 14  4  1  0  0  0  0
 14  3  1  0  0  0  0
 15 16  1  0  0  0  0
 16 27  1  0  0  0  0
 16 17  2  0  0  0  0
 17 28  1  0  0  0  0
 18 17  1  0  0  0  0
 18 21  1  0  0  0  0
 19 18  2  0  0  0  0
 20 19  1  0  0  0  0
 20 15  2  0  0  0  0
 21  7  1  0  0  0  0
 22  1  1  0  0  0  0
 23  9  1  0  0  0  0
 24 10  1  0  0  0  0
 29 19  1  0  0  0  0
 30 20  1  0  0  0  0
M  END
