3
 OpenBabel05122313063D

 67 68  0  0  0  0  0  0  0  0999 V2000
    2.2991   -0.6111   -0.0602 P   0  0  0  0  0  0  0  0  0  0  0  0
   -2.2991   -0.6110   -0.0603 P   0  0  0  0  0  0  0  0  0  0  0  0
    0.0000    1.3907    0.7034 Si  0  0  0  0  0  3  0  0  0  0  0  0
    2.6573    1.1914   -0.3193 C   0  0  0  0  0  0  0  0  0  0  0  0
    3.9029    1.6446   -0.8026 C   0  0  0  0  0  0  0  0  0  0  0  0
    4.6995    0.9282   -1.0538 H   0  0  0  0  0  0  0  0  0  0  0  0
    4.1346    3.0154   -0.9898 C   0  0  0  0  0  0  0  0  0  0  0  0
    5.1054    3.3597   -1.3782 H   0  0  0  0  0  0  0  0  0  0  0  0
    3.1262    3.9422   -0.6827 C   0  0  0  0  0  0  0  0  0  0  0  0
    3.3048    5.0191   -0.8266 H   0  0  0  0  0  0  0  0  0  0  0  0
    1.8897    3.4927   -0.1947 C   0  0  0  0  0  0  0  0  0  0  0  0
    1.1132    4.2360    0.0479 H   0  0  0  0  0  0  0  0  0  0  0  0
    1.6238    2.1187   -0.0166 C   0  0  0  0  0  0  0  0  0  0  0  0
   -0.0000    1.9622    2.5238 C   0  0  0  0  0  0  0  0  0  0  0  0
    0.0002    3.0727    2.5548 H   0  0  0  0  0  0  0  0  0  0  0  0
    0.8991    1.6050    3.0613 H   0  0  0  0  0  0  0  0  0  0  0  0
   -0.8995    1.6054    3.0611 H   0  0  0  0  0  0  0  0  0  0  0  0
   -1.6237    2.1188   -0.0165 C   0  0  0  0  0  0  0  0  0  0  0  0
   -1.8896    3.4928   -0.1946 C   0  0  0  0  0  0  0  0  0  0  0  0
   -1.1132    4.2361    0.0478 H   0  0  0  0  0  0  0  0  0  0  0  0
   -3.1263    3.9423   -0.6823 C   0  0  0  0  0  0  0  0  0  0  0  0
   -3.3049    5.0192   -0.8262 H   0  0  0  0  0  0  0  0  0  0  0  0
   -4.1348    3.0155   -0.9893 C   0  0  0  0  0  0  0  0  0  0  0  0
   -5.1056    3.3598   -1.3775 H   0  0  0  0  0  0  0  0  0  0  0  0
   -3.9030    1.6447   -0.8022 C   0  0  0  0  0  0  0  0  0  0  0  0
   -4.6996    0.9283   -1.0533 H   0  0  0  0  0  0  0  0  0  0  0  0
   -2.6572    1.1914   -0.3191 C   0  0  0  0  0  0  0  0  0  0  0  0
    3.3634   -1.1595    1.3860 C   0  0  0  0  0  0  0  0  0  0  0  0
    3.0738   -2.2302    1.4788 H   0  0  0  0  0  0  0  0  0  0  0  0
    4.8749   -1.0488    1.1721 C   0  0  0  0  0  0  0  0  0  0  0  0
    5.1932    0.0105    1.0913 H   0  0  0  0  0  0  0  0  0  0  0  0
    5.2248   -1.5863    0.2686 H   0  0  0  0  0  0  0  0  0  0  0  0
    5.4097   -1.4853    2.0416 H   0  0  0  0  0  0  0  0  0  0  0  0
    2.9151   -0.4358    2.6589 C   0  0  0  0  0  0  0  0  0  0  0  0
    3.4561   -0.8409    3.5388 H   0  0  0  0  0  0  0  0  0  0  0  0
    1.8295   -0.5645    2.8327 H   0  0  0  0  0  0  0  0  0  0  0  0
    3.1324    0.6510    2.5996 H   0  0  0  0  0  0  0  0  0  0  0  0
    3.0598   -1.4420   -1.5607 C   0  0  0  0  0  0  0  0  0  0  0  0
    4.1108   -1.0814   -1.6045 H   0  0  0  0  0  0  0  0  0  0  0  0
    2.3348   -0.9980   -2.8355 C   0  0  0  0  0  0  0  0  0  0  0  0
    2.8428   -1.4186   -3.7279 H   0  0  0  0  0  0  0  0  0  0  0  0
    2.3132    0.1052   -2.9386 H   0  0  0  0  0  0  0  0  0  0  0  0
    1.2862   -1.3571   -2.8318 H   0  0  0  0  0  0  0  0  0  0  0  0
    3.0625   -2.9662   -1.4042 C   0  0  0  0  0  0  0  0  0  0  0  0
    2.0329   -3.3524   -1.2671 H   0  0  0  0  0  0  0  0  0  0  0  0
    3.6643   -3.3052   -0.5383 H   0  0  0  0  0  0  0  0  0  0  0  0
    3.4887   -3.4375   -2.3141 H   0  0  0  0  0  0  0  0  0  0  0  0
   -3.3634   -1.1598    1.3857 C   0  0  0  0  0  0  0  0  0  0  0  0
   -3.0737   -2.2305    1.4783 H   0  0  0  0  0  0  0  0  0  0  0  0
   -2.9153   -0.4363    2.6589 C   0  0  0  0  0  0  0  0  0  0  0  0
   -3.1329    0.6504    2.5998 H   0  0  0  0  0  0  0  0  0  0  0  0
   -1.8296   -0.5647    2.8325 H   0  0  0  0  0  0  0  0  0  0  0  0
   -3.4561   -0.8418    3.5387 H   0  0  0  0  0  0  0  0  0  0  0  0
   -4.8749   -1.0492    1.1718 C   0  0  0  0  0  0  0  0  0  0  0  0
   -5.4097   -1.4858    2.0412 H   0  0  0  0  0  0  0  0  0  0  0  0
   -5.2247   -1.5868    0.2683 H   0  0  0  0  0  0  0  0  0  0  0  0
   -5.1933    0.0100    1.0910 H   0  0  0  0  0  0  0  0  0  0  0  0
   -3.0597   -1.4417   -1.5609 C   0  0  0  0  0  0  0  0  0  0  0  0
   -4.1107   -1.0811   -1.6047 H   0  0  0  0  0  0  0  0  0  0  0  0
   -2.3347   -0.9975   -2.8356 C   0  0  0  0  0  0  0  0  0  0  0  0
   -1.2860   -1.3566   -2.8320 H   0  0  0  0  0  0  0  0  0  0  0  0
   -2.3131    0.1057   -2.9387 H   0  0  0  0  0  0  0  0  0  0  0  0
   -2.8425   -1.4181   -3.7281 H   0  0  0  0  0  0  0  0  0  0  0  0
   -3.0624   -2.9659   -1.4048 C   0  0  0  0  0  0  0  0  0  0  0  0
   -3.4888   -3.4371   -2.3146 H   0  0  0  0  0  0  0  0  0  0  0  0
   -3.6641   -3.3051   -0.5388 H   0  0  0  0  0  0  0  0  0  0  0  0
   -2.0328   -3.3522   -1.2678 H   0  0  0  0  0  0  0  0  0  0  0  0
  1 28  1  0  0  0  0
  2 48  1  0  0  0  0
  3 14  1  0  0  0  0
  4  1  1  0  0  0  0
  4 13  1  0  0  0  0
  5  4  2  0  0  0  0
  6  5  1  0  0  0  0
  7  5  1  0  0  0  0
  7  9  2  0  0  0  0
  8  7  1  0  0  0  0
  9 11  1  0  0  0  0
 10  9  1  0  0  0  0
 11 13  2  0  0  0  0
 11 12  1  0  0  0  0
 13  3  1  0  0  0  0
 14 15  1  0  0  0  0
 14 17  1  0  0  0  0
 14 16  1  0  0  0  0
 18  3  1  0  0  0  0
 19 18  1  0  0  0  0
 19 20  1  0  0  0  0
 21 19  2  0  0  0  0
 22 21  1  0  0  0  0
 23 25  2  0  0  0  0
 23 21  1  0  0  0  0
 24 23  1  0  0  0  0
 25 27  1  0  0  0  0
 26 25  1  0  0  0  0
 27  2  1  0  0  0  0
 27 18  2  0  0  0  0
 28 29  1  0  0  0  0
 28 34  1  0  0  0  0
 30 28  1  0  0  0  0
 30 33  1  0  0  0  0
 31 30  1  0  0  0  0
 32 30  1  0  0  0  0
 34 36  1  0  0  0  0
 34 35  1  0  0  0  0
 37 34  1  0  0  0  0
 38 44  1  0  0  0  0
 38  1  1  0  0  0  0
 39 38  1  0  0  0  0
 40 43  1  0  0  0  0
 40 38  1  0  0  0  0
 41 40  1  0  0  0  0
 42 40  1  0  0  0  0
 44 45  1  0  0  0  0
 44 46  1  0  0  0  0
 47 44  1  0  0  0  0
 48 49  1  0  0  0  0
 48 50  1  0  0  0  0
 50 52  1  0  0  0  0
 50 53  1  0  0  0  0
 51 50  1  0  0  0  0
 54 48  1  0  0  0  0
 54 55  1  0  0  0  0
 56 54  1  0  0  0  0
 57 54  1  0  0  0  0
 58 64  1  0  0  0  0
 58  2  1  0  0  0  0
 59 58  1  0  0  0  0
 60 61  1  0  0  0  0
 60 58  1  0  0  0  0
 62 60  1  0  0  0  0
 63 60  1  0  0  0  0
 64 67  1  0  0  0  0
 64 66  1  0  0  0  0
 65 64  1  0  0  0  0
M  END
