1
 OpenBabel05122313063D

 22 21  0  0  0  0  0  0  0  0999 V2000
   -0.2188   -0.0531    0.1531 Si  0  0  0  0  0  0  0  0  0  0  0  0
    0.0379   -2.7735    0.1211 F   0  0  0  0  0  0  0  0  0  0  0  0
   -1.4247   -2.0716    1.6326 F   0  0  0  0  0  0  0  0  0  0  0  0
    2.0938   -2.0872    1.6607 F   0  0  0  0  0  0  0  0  0  0  0  0
    0.6314   -3.2302    2.8070 F   0  0  0  0  0  0  0  0  0  0  0  0
    0.8104   -1.0759    3.1127 F   0  0  0  0  0  0  0  0  0  0  0  0
    0.4137    1.5571    2.3261 F   0  0  0  0  0  0  0  0  0  0  0  0
   -1.5771    0.6100    2.4929 F   0  0  0  0  0  0  0  0  0  0  0  0
   -1.3493    3.4203    2.2642 F   0  0  0  0  0  0  0  0  0  0  0  0
   -2.6330    2.4219    0.8196 F   0  0  0  0  0  0  0  0  0  0  0  0
   -0.6561    3.1423    0.2113 F   0  0  0  0  0  0  0  0  0  0  0  0
   -2.9827   -0.2590    0.1103 F   0  0  0  0  0  0  0  0  0  0  0  0
   -2.1151    1.0307   -1.4719 F   0  0  0  0  0  0  0  0  0  0  0  0
   -3.3437   -1.0473   -2.5138 F   0  0  0  0  0  0  0  0  0  0  0  0
   -1.1866   -1.2942   -2.7426 F   0  0  0  0  0  0  0  0  0  0  0  0
   -2.2807   -2.4785   -1.2615 F   0  0  0  0  0  0  0  0  0  0  0  0
   -0.2026   -1.8100    1.0791 C   0  0  0  0  0  0  0  0  0  0  0  0
    0.8465   -2.0613    2.1907 C   0  0  0  0  0  0  0  0  0  0  0  0
   -0.7237    1.2125    1.6141 C   0  0  0  0  0  0  0  0  0  0  0  0
   -1.3671    2.5736    1.2201 C   0  0  0  0  0  0  0  0  0  0  0  0
   -1.9596   -0.1619   -0.7936 C   0  0  0  0  0  0  0  0  0  0  0  0
   -2.2014   -1.2745   -1.8458 C   0  0  0  0  0  0  0  0  0  0  0  0
  1 17  1  0  0  0  0
  1 19  1  0  0  0  0
  2 17  1  0  0  0  0
  4 18  1  0  0  0  0
 10 20  1  0  0  0  0
 11 20  1  0  0  0  0
 13 21  1  0  0  0  0
 14 22  1  0  0  0  0
 15 22  1  0  0  0  0
 17  3  1  0  0  0  0
 17 18  1  0  0  0  0
 18  5  1  0  0  0  0
 18  6  1  0  0  0  0
 19  7  1  0  0  0  0
 19  8  1  0  0  0  0
 20 19  1  0  0  0  0
 20  9  1  0  0  0  0
 21 12  1  0  0  0  0
 21  1  1  0  0  0  0
 22 16  1  0  0  0  0
 22 21  1  0  0  0  0
M  END
