1
 OpenBabel05122313063D

 33 33  0  0  0  0  0  0  0  0999 V2000
    0.1314   -0.0115    1.0725 Si  0  0  1  0  0  3  0  0  0  0  0  0
   -2.6215    1.7161   -0.4586 N   0  3  0  0  0  0  0  0  0  0  0  0
   -0.6301    1.5665    1.2215 O   0  0  0  0  0  0  0  0  0  0  0  0
    0.0453    2.7193    1.7289 C   0  0  0  0  0  0  0  0  0  0  0  0
    0.6029   -0.4900    2.8378 C   0  0  0  0  0  0  0  0  0  0  0  0
   -1.3690   -1.0715    0.5328 C   0  0  0  0  0  0  0  0  0  0  0  0
   -2.2891   -0.7853   -0.5182 C   0  0  0  0  0  0  0  0  0  0  0  0
   -3.2947   -1.7149   -0.8528 C   0  0  0  0  0  0  0  0  0  0  0  0
   -3.4135   -2.9357   -0.1744 C   0  0  0  0  0  0  0  0  0  0  0  0
   -2.5266   -3.2267    0.8695 C   0  0  0  0  0  0  0  0  0  0  0  0
   -1.5272   -2.3023    1.2128 C   0  0  0  0  0  0  0  0  0  0  0  0
   -2.2501    0.5086   -1.2941 C   0  0  0  0  0  0  0  0  0  0  0  0
   -2.5128    2.9722   -1.2504 C   0  0  0  0  0  0  0  0  0  0  0  0
   -3.9422    1.5805    0.2097 C   0  0  0  0  0  0  0  0  0  0  0  0
   -1.8460    1.7456    0.3098 H   0  0  0  0  0  0  0  0  0  0  0  0
   -0.7086    3.5032    1.9427 H   0  0  0  0  0  0  0  0  0  0  0  0
    0.7762    3.1214    0.9946 H   0  0  0  0  0  0  0  0  0  0  0  0
    0.5803    2.4892    2.6728 H   0  0  0  0  0  0  0  0  0  0  0  0
    1.0902   -1.4849    2.8732 H   0  0  0  0  0  0  0  0  0  0  0  0
   -0.2815   -0.5049    3.5065 H   0  0  0  0  0  0  0  0  0  0  0  0
    1.3380    0.2327    3.2454 H   0  0  0  0  0  0  0  0  0  0  0  0
   -3.9985   -1.4775   -1.6667 H   0  0  0  0  0  0  0  0  0  0  0  0
   -4.1998   -3.6508   -0.4576 H   0  0  0  0  0  0  0  0  0  0  0  0
   -2.6113   -4.1737    1.4232 H   0  0  0  0  0  0  0  0  0  0  0  0
   -0.8526   -2.5548    2.0455 H   0  0  0  0  0  0  0  0  0  0  0  0
   -2.9523    0.4768   -2.1507 H   0  0  0  0  0  0  0  0  0  0  0  0
   -1.2396    0.7229   -1.6899 H   0  0  0  0  0  0  0  0  0  0  0  0
   -1.4893    3.0494   -1.6592 H   0  0  0  0  0  0  0  0  0  0  0  0
   -2.7179    3.8347   -0.5903 H   0  0  0  0  0  0  0  0  0  0  0  0
   -3.2499    2.9574   -2.0759 H   0  0  0  0  0  0  0  0  0  0  0  0
   -3.9432    0.6660    0.8286 H   0  0  0  0  0  0  0  0  0  0  0  0
   -4.7421    1.5150   -0.5528 H   0  0  0  0  0  0  0  0  0  0  0  0
   -4.1111    2.4653    0.8497 H   0  0  0  0  0  0  0  0  0  0  0  0
  1  3  1  1  0  0  0
  1  5  1  0  0  0  0
  2 14  1  0  0  0  0
  2 15  1  0  0  0  0
  3  4  1  0  0  0  0
  4 16  1  0  0  0  0
  4 18  1  0  0  0  0
  5 19  1  0  0  0  0
  5 21  1  0  0  0  0
  5 20  1  0  0  0  0
  6  1  1  0  0  0  0
  6 11  1  0  0  0  0
  7  6  2  0  0  0  0
  8  7  1  0  0  0  0
  8  9  2  0  0  0  0
  9 10  1  0  0  0  0
 10 11  2  0  0  0  0
 10 24  1  0  0  0  0
 11 25  1  0  0  0  0
 12  7  1  0  0  0  0
 12  2  1  0  0  0  0
 13 29  1  0  0  0  0
 13  2  1  0  0  0  0
 14 31  1  0  0  0  0
 14 33  1  0  0  0  0
 17  4  1  0  0  0  0
 22  8  1  0  0  0  0
 23  9  1  0  0  0  0
 26 12  1  0  0  0  0
 27 12  1  0  0  0  0
 28 13  1  0  0  0  0
 30 13  1  0  0  0  0
 32 14  1  0  0  0  0
M  CHG  1   2   1
M  END
