1
 OpenBabel05122313063D

 56 57  0  0  1  0  0  0  0  0999 V2000
   -0.8897    0.1231   -0.9619 Si  0  0  0  0  0  3  0  0  0  0  0  0
   -0.7449    1.8819   -0.3173 N   0  0  0  0  0  0  0  0  0  0  0  0
    0.5811    1.7064   -0.0815 C   0  0  1  0  0  3  0  0  0  0  0  0
    0.8770    0.4258   -0.4432 N   0  0  0  0  0  0  0  0  0  0  0  0
    2.9062    2.4702    0.0583 C   0  0  0  0  0  0  0  0  0  0  0  0
    3.5011    2.0046    0.8734 H   0  0  0  0  0  0  0  0  0  0  0  0
    3.3123    3.4825   -0.1479 H   0  0  0  0  0  0  0  0  0  0  0  0
    3.0265    1.8566   -0.8508 H   0  0  0  0  0  0  0  0  0  0  0  0
    1.4947    2.5924    0.4031 N   0  0  0  0  0  0  0  0  0  0  0  0
    1.1594    3.5925    1.4030 C   0  0  0  0  0  0  0  0  0  0  0  0
    1.0849    4.6184    0.9791 H   0  0  0  0  0  0  0  0  0  0  0  0
    1.9492    3.5997    2.1818 H   0  0  0  0  0  0  0  0  0  0  0  0
    0.2069    3.3315    1.8946 H   0  0  0  0  0  0  0  0  0  0  0  0
   -1.5568    3.0786   -0.6544 C   0  0  0  0  0  0  0  0  0  0  0  0
   -0.7505    4.0583   -1.5243 C   0  0  0  0  0  0  0  0  0  0  0  0
    0.1361    4.4554   -0.9938 H   0  0  0  0  0  0  0  0  0  0  0  0
   -1.3843    4.9201   -1.8133 H   0  0  0  0  0  0  0  0  0  0  0  0
   -0.4029    3.5593   -2.4513 H   0  0  0  0  0  0  0  0  0  0  0  0
   -2.1131    3.7652    0.6110 C   0  0  0  0  0  0  0  0  0  0  0  0
   -2.5361    3.0077    1.2987 H   0  0  0  0  0  0  0  0  0  0  0  0
   -2.9178    4.4726    0.3288 H   0  0  0  0  0  0  0  0  0  0  0  0
   -1.3471    4.3477    1.1531 H   0  0  0  0  0  0  0  0  0  0  0  0
   -2.7632    2.5531   -1.4595 C   0  0  0  0  0  0  0  0  0  0  0  0
   -2.4431    2.0492   -2.3926 H   0  0  0  0  0  0  0  0  0  0  0  0
   -3.4287    3.3927   -1.7376 H   0  0  0  0  0  0  0  0  0  0  0  0
   -3.3524    1.8325   -0.8578 H   0  0  0  0  0  0  0  0  0  0  0  0
    1.9387   -0.4022    0.0202 C   0  0  0  0  0  0  0  0  0  0  0  0
    2.7986   -0.9685   -0.9614 C   0  0  0  0  0  0  0  0  0  0  0  0
    3.8293   -1.8225   -0.5356 C   0  0  0  0  0  0  0  0  0  0  0  0
    4.5005   -2.2741   -1.2808 H   0  0  0  0  0  0  0  0  0  0  0  0
    4.0149   -2.1055    0.8235 C   0  0  0  0  0  0  0  0  0  0  0  0
    4.8274   -2.7764    1.1412 H   0  0  0  0  0  0  0  0  0  0  0  0
    3.1592   -1.5423    1.7752 C   0  0  0  0  0  0  0  0  0  0  0  0
    3.3018   -1.7819    2.8402 H   0  0  0  0  0  0  0  0  0  0  0  0
    2.1013   -0.6901    1.4019 C   0  0  0  0  0  0  0  0  0  0  0  0
    1.1725   -0.1493    2.4826 C   0  0  0  0  0  0  0  0  0  0  0  0
    0.4029    0.4840    2.0000 H   0  0  0  0  0  0  0  0  0  0  0  0
    1.9312    0.7274    3.4944 C   0  0  0  0  0  0  0  0  0  0  0  0
    1.2260    1.2010    4.2078 H   0  0  0  0  0  0  0  0  0  0  0  0
    2.5092    1.5303    2.9951 H   0  0  0  0  0  0  0  0  0  0  0  0
    2.6508    0.1269    4.0882 H   0  0  0  0  0  0  0  0  0  0  0  0
    0.4176   -1.2824    3.1988 C   0  0  0  0  0  0  0  0  0  0  0  0
    1.1154   -1.9634    3.7278 H   0  0  0  0  0  0  0  0  0  0  0  0
   -0.1751   -1.8773    2.4785 H   0  0  0  0  0  0  0  0  0  0  0  0
   -0.2844   -0.8608    3.9461 H   0  0  0  0  0  0  0  0  0  0  0  0
    2.5794   -0.6818   -2.4412 C   0  0  0  0  0  0  0  0  0  0  0  0
    2.0085    0.2694   -2.5019 H   0  0  0  0  0  0  0  0  0  0  0  0
    3.8866   -0.4938   -3.2239 C   0  0  0  0  0  0  0  0  0  0  0  0
    4.5399    0.2706   -2.7559 H   0  0  0  0  0  0  0  0  0  0  0  0
    3.6698   -0.1717   -4.2625 H   0  0  0  0  0  0  0  0  0  0  0  0
    4.4685   -1.4359   -3.2933 H   0  0  0  0  0  0  0  0  0  0  0  0
    1.7023   -1.7752   -3.0786 C   0  0  0  0  0  0  0  0  0  0  0  0
    2.2046   -2.7628   -3.0235 H   0  0  0  0  0  0  0  0  0  0  0  0
    1.4976   -1.5464   -4.1445 H   0  0  0  0  0  0  0  0  0  0  0  0
    0.7314   -1.8776   -2.5570 H   0  0  0  0  0  0  0  0  0  0  0  0
   -0.8316    0.3143   -2.4596 H   0  0  0  0  0  0  0  0  0  0  0  0
  1  4  1  0  0  0  0
  1  2  1  0  0  0  0
  2  3  1  0  0  0  0
  3  9  1  6  0  0  0
  4  3  1  0  0  0  0
  4 27  1  0  0  0  0
  5  9  1  0  0  0  0
  5  6  1  0  0  0  0
  7  5  1  0  0  0  0
  8  5  1  0  0  0  0
  9 10  1  0  0  0  0
 10 13  1  0  0  0  0
 10 12  1  0  0  0  0
 11 10  1  0  0  0  0
 14  2  1  0  0  0  0
 14 19  1  0  0  0  0
 15 16  1  0  0  0  0
 15 14  1  0  0  0  0
 17 15  1  0  0  0  0
 18 15  1  0  0  0  0
 19 22  1  0  0  0  0
 19 20  1  0  0  0  0
 21 19  1  0  0  0  0
 23 26  1  0  0  0  0
 23 14  1  0  0  0  0
 24 23  1  0  0  0  0
 25 23  1  0  0  0  0
 27 35  1  0  0  0  0
 28 29  1  0  0  0  0
 28 27  2  0  0  0  0
 29 31  2  0  0  0  0
 30 29  1  0  0  0  0
 31 32  1  0  0  0  0
 31 33  1  0  0  0  0
 33 34  1  0  0  0  0
 35 33  2  0  0  0  0
 35 36  1  0  0  0  0
 36 42  1  0  0  0  0
 36 38  1  0  0  0  0
 37 36  1  0  0  0  0
 38 41  1  0  0  0  0
 38 39  1  0  0  0  0
 40 38  1  0  0  0  0
 42 43  1  0  0  0  0
 42 45  1  0  0  0  0
 44 42  1  0  0  0  0
 46 28  1  0  0  0  0
 47 46  1  0  0  0  0
 48 49  1  0  0  0  0
 48 46  1  0  0  0  0
 50 48  1  0  0  0  0
 51 48  1  0  0  0  0
 52 53  1  0  0  0  0
 52 55  1  0  0  0  0
 52 46  1  0  0  0  0
 54 52  1  0  0  0  0
 56  1  1  0  0  0  0
M  END
