3
 OpenBabel05122313063D

 28 28  0  0  1  0  0  0  0  0999 V2000
    0.0987   -1.6255    2.5693 Cl  0  0  0  0  0  0  0  0  0  0  0  0
    0.1947   -3.0981   -0.3566 Cl  0  0  0  0  0  0  0  0  0  0  0  0
    0.4854   -1.0852    0.4822 Si  0  0  0  0  0  3  0  0  0  0  0  0
    2.4952   -1.0256    0.5801 C   0  0  2  0  0  0  0  0  0  0  0  0
    2.8106    0.2948    1.2445 C   0  0  0  0  0  0  0  0  0  0  0  0
    3.3257    1.1504    0.2928 C   0  0  0  0  0  0  0  0  0  0  0  0
    3.4575    0.4369   -0.9822 C   0  0  0  0  0  0  0  0  0  0  0  0
    3.0060   -0.8565   -0.8282 C   0  0  0  0  0  0  0  0  0  0  0  0
    3.0502   -2.2657    1.2957 C   0  0  0  0  0  0  0  0  0  0  0  0
    2.7148    0.5388    2.7195 C   0  0  0  0  0  0  0  0  0  0  0  0
    3.7506    2.5775    0.4676 C   0  0  0  0  0  0  0  0  0  0  0  0
    4.0487    1.0628   -2.2098 C   0  0  0  0  0  0  0  0  0  0  0  0
    3.1108   -1.9758   -1.8179 C   0  0  0  0  0  0  0  0  0  0  0  0
    4.1595   -2.2124    1.3192 H   0  0  0  0  0  0  0  0  0  0  0  0
    2.6764   -2.3353    2.3346 H   0  0  0  0  0  0  0  0  0  0  0  0
    2.7520   -3.1958    0.7740 H   0  0  0  0  0  0  0  0  0  0  0  0
    3.0458    1.5619    2.9850 H   0  0  0  0  0  0  0  0  0  0  0  0
    1.6934    0.3821    3.1214 H   0  0  0  0  0  0  0  0  0  0  0  0
    3.3638   -0.1708    3.2789 H   0  0  0  0  0  0  0  0  0  0  0  0
    3.6201    2.9314    1.5082 H   0  0  0  0  0  0  0  0  0  0  0  0
    4.8176    2.7244    0.1938 H   0  0  0  0  0  0  0  0  0  0  0  0
    3.1686    3.2624   -0.1888 H   0  0  0  0  0  0  0  0  0  0  0  0
    4.0600    0.3664   -3.0701 H   0  0  0  0  0  0  0  0  0  0  0  0
    3.4883    1.9697   -2.5269 H   0  0  0  0  0  0  0  0  0  0  0  0
    5.0955    1.3934   -2.0351 H   0  0  0  0  0  0  0  0  0  0  0  0
    3.4489   -1.6164   -2.8097 H   0  0  0  0  0  0  0  0  0  0  0  0
    3.8462   -2.7392   -1.4792 H   0  0  0  0  0  0  0  0  0  0  0  0
    2.1523   -2.5198   -1.9441 H   0  0  0  0  0  0  0  0  0  0  0  0
  2  3  1  0  0  0  0
  3  1  1  0  0  0  0
  4  3  1  6  0  0  0
  4  5  1  0  0  0  0
  4  9  1  0  0  0  0
  5 10  1  0  0  0  0
  6 11  1  0  0  0  0
  6  5  2  0  0  0  0
  7  8  2  0  0  0  0
  7  6  1  0  0  0  0
  8  4  1  0  0  0  0
  9 14  1  0  0  0  0
  9 15  1  0  0  0  0
 10 17  1  0  0  0  0
 10 18  1  0  0  0  0
 10 19  1  0  0  0  0
 11 20  1  0  0  0  0
 12 25  1  0  0  0  0
 12  7  1  0  0  0  0
 13 27  1  0  0  0  0
 13  8  1  0  0  0  0
 16  9  1  0  0  0  0
 21 11  1  0  0  0  0
 22 11  1  0  0  0  0
 23 12  1  0  0  0  0
 24 12  1  0  0  0  0
 26 13  1  0  0  0  0
 28 13  1  0  0  0  0
M  END
