1,2
 OpenBabel05122313063D

 34 36  0  0  0  0  0  0  0  0999 V2000
   -1.8115   -0.0334    0.0588 P   0  0  0  0  0  0  0  0  0  0  0  0
    0.5841    0.3931    1.4721 O   0  5  0  0  0  0  0  0  0  0  0  0
   -0.4218    0.8880    2.1765 C   0  0  0  0  0  0  0  0  0  0  0  0
   -0.2214    1.5374    3.4194 C   0  0  0  0  0  0  0  0  0  0  0  0
   -1.3176    2.0455    4.1239 C   0  0  0  0  0  0  0  0  0  0  0  0
   -2.6297    1.9368    3.6188 C   0  0  0  0  0  0  0  0  0  0  0  0
   -2.8442    1.3020    2.3877 C   0  0  0  0  0  0  0  0  0  0  0  0
   -1.7533    0.7706    1.6774 C   0  0  0  0  0  0  0  0  0  0  0  0
   -2.8887    0.9887   -1.0132 C   0  0  0  0  0  0  0  0  0  0  0  0
   -4.2382    0.6553   -1.2436 C   0  0  0  0  0  0  0  0  0  0  0  0
   -5.0383    1.4969   -2.0322 C   0  0  0  0  0  0  0  0  0  0  0  0
   -4.4958    2.6641   -2.5919 C   0  0  0  0  0  0  0  0  0  0  0  0
   -3.1487    2.9921   -2.3636 C   0  0  0  0  0  0  0  0  0  0  0  0
   -2.3399    2.1597   -1.5778 C   0  0  0  0  0  0  0  0  0  0  0  0
   -2.6821   -1.6355    0.2260 C   0  0  0  0  0  0  0  0  0  0  0  0
   -2.7650   -2.4613   -0.9162 C   0  0  0  0  0  0  0  0  0  0  0  0
   -3.3725   -3.7203   -0.8253 C   0  0  0  0  0  0  0  0  0  0  0  0
   -3.8867   -4.1679    0.4036 C   0  0  0  0  0  0  0  0  0  0  0  0
   -3.7894   -3.3546    1.5429 C   0  0  0  0  0  0  0  0  0  0  0  0
   -3.1861   -2.0897    1.4587 C   0  0  0  0  0  0  0  0  0  0  0  0
    0.8050    1.6319    3.8020 H   0  0  0  0  0  0  0  0  0  0  0  0
   -1.1484    2.5488    5.0886 H   0  0  0  0  0  0  0  0  0  0  0  0
   -3.4775    2.3541    4.1813 H   0  0  0  0  0  0  0  0  0  0  0  0
   -3.8598    1.2242    1.9682 H   0  0  0  0  0  0  0  0  0  0  0  0
   -4.6611   -0.2641   -0.8115 H   0  0  0  0  0  0  0  0  0  0  0  0
   -6.0923    1.2354   -2.2118 H   0  0  0  0  0  0  0  0  0  0  0  0
   -5.1248    3.3193   -3.2137 H   0  0  0  0  0  0  0  0  0  0  0  0
   -2.7202    3.9032   -2.8085 H   0  0  0  0  0  0  0  0  0  0  0  0
   -1.2805    2.4024   -1.3974 H   0  0  0  0  0  0  0  0  0  0  0  0
   -2.3441   -2.1171   -1.8741 H   0  0  0  0  0  0  0  0  0  0  0  0
   -3.4352   -4.3614   -1.7175 H   0  0  0  0  0  0  0  0  0  0  0  0
   -4.3577   -5.1602    0.4740 H   0  0  0  0  0  0  0  0  0  0  0  0
   -4.1823   -3.7071    2.5086 H   0  0  0  0  0  0  0  0  0  0  0  0
   -3.0986   -1.4549    2.3530 H   0  0  0  0  0  0  0  0  0  0  0  0
  1 15  1  0  0  0  0
  1  8  1  0  0  0  0
  2  3  1  0  0  0  0
  3  4  1  0  0  0  0
  4 21  1  0  0  0  0
  4  5  2  0  0  0  0
  5 22  1  0  0  0  0
  6  5  1  0  0  0  0
  6 23  1  0  0  0  0
  7  6  2  0  0  0  0
  8  3  2  0  0  0  0
  8  7  1  0  0  0  0
  9  1  1  0  0  0  0
 10  9  1  0  0  0  0
 10 25  1  0  0  0  0
 11 10  2  0  0  0  0
 12 13  2  0  0  0  0
 12 11  1  0  0  0  0
 13 14  1  0  0  0  0
 14 29  1  0  0  0  0
 14  9  2  0  0  0  0
 15 20  1  0  0  0  0
 16 17  1  0  0  0  0
 16 15  2  0  0  0  0
 17 18  2  0  0  0  0
 18 32  1  0  0  0  0
 18 19  1  0  0  0  0
 19 33  1  0  0  0  0
 20 19  2  0  0  0  0
 20 34  1  0  0  0  0
 24  7  1  0  0  0  0
 26 11  1  0  0  0  0
 27 12  1  0  0  0  0
 28 13  1  0  0  0  0
 30 16  1  0  0  0  0
 31 17  1  0  0  0  0
M  CHG  1   2  -1
M  END
