2,3
 OpenBabel05122313063D

 79 86  0  0  0  0  0  0  0  0999 V2000
    2.0785   -0.6079    0.1544 P   0  0  0  0  0  4  0  0  0  0  0  0
   -1.7336   -0.5195    0.6522 P   0  0  0  0  0  0  0  0  0  0  0  0
    1.1472   -1.4563    1.0664 O   0  0  0  0  0  1  0  0  0  0  0  0
    1.2068    0.0009   -1.3366 C   0  0  0  0  0  0  0  0  0  0  0  0
    1.4019   -0.6941   -2.5680 C   0  0  0  0  0  0  0  0  0  0  0  0
    2.1026   -1.5397   -2.6046 H   0  0  0  0  0  0  0  0  0  0  0  0
    0.6786   -0.3388   -3.6906 C   0  0  0  0  0  0  0  0  0  0  0  0
    0.8191   -0.8889   -4.6336 H   0  0  0  0  0  0  0  0  0  0  0  0
   -0.2674    0.7255   -3.6472 C   0  0  0  0  0  0  0  0  0  0  0  0
   -1.0205    1.1090   -4.7950 C   0  0  0  0  0  0  0  0  0  0  0  0
   -0.8546    0.5658   -5.7382 H   0  0  0  0  0  0  0  0  0  0  0  0
   -1.9436    2.1413   -4.7276 C   0  0  0  0  0  0  0  0  0  0  0  0
   -2.5202    2.4249   -5.6211 H   0  0  0  0  0  0  0  0  0  0  0  0
   -2.1528    2.8324   -3.5043 C   0  0  0  0  0  0  0  0  0  0  0  0
   -2.8958    3.6420   -3.4540 H   0  0  0  0  0  0  0  0  0  0  0  0
   -1.4407    2.4821   -2.3688 C   0  0  0  0  0  0  0  0  0  0  0  0
   -1.6197    3.0065   -1.4204 H   0  0  0  0  0  0  0  0  0  0  0  0
   -0.4822    1.4252   -2.4038 C   0  0  0  0  0  0  0  0  0  0  0  0
    0.2578    1.0324   -1.2376 C   0  0  0  0  0  0  0  0  0  0  0  0
   -0.8048    1.0571    1.0562 C   0  0  0  0  0  0  0  0  0  0  0  0
   -0.9820    1.6835    2.3239 C   0  0  0  0  0  0  0  0  0  0  0  0
   -1.5859    1.1790    3.0909 H   0  0  0  0  0  0  0  0  0  0  0  0
   -0.4101    2.9133    2.6024 C   0  0  0  0  0  0  0  0  0  0  0  0
   -0.5501    3.3758    3.5919 H   0  0  0  0  0  0  0  0  0  0  0  0
    0.3458    3.6089    1.6190 C   0  0  0  0  0  0  0  0  0  0  0  0
    0.9149    4.8913    1.8707 C   0  0  0  0  0  0  0  0  0  0  0  0
    0.7686    5.3454    2.8631 H   0  0  0  0  0  0  0  0  0  0  0  0
    1.6299    5.5580    0.8878 C   0  0  0  0  0  0  0  0  0  0  0  0
    2.0576    6.5512    1.0921 H   0  0  0  0  0  0  0  0  0  0  0  0
    1.8111    4.9588   -0.3866 C   0  0  0  0  0  0  0  0  0  0  0  0
    2.3765    5.4927   -1.1653 H   0  0  0  0  0  0  0  0  0  0  0  0
    1.2862    3.7035   -0.6555 C   0  0  0  0  0  0  0  0  0  0  0  0
    1.4378    3.2422   -1.6415 H   0  0  0  0  0  0  0  0  0  0  0  0
    0.5377    2.9934    0.3308 C   0  0  0  0  0  0  0  0  0  0  0  0
   -0.0163    1.6894    0.0781 C   0  0  0  0  0  0  0  0  0  0  0  0
    3.5334   -1.5466   -0.4085 C   0  0  0  0  0  0  0  0  0  0  0  0
    3.7301   -2.8348    0.1233 C   0  0  0  0  0  0  0  0  0  0  0  0
    2.9644   -3.2684    0.7819 H   0  0  0  0  0  0  0  0  0  0  0  0
    4.8735   -3.5634   -0.2397 C   0  0  0  0  0  0  0  0  0  0  0  0
    5.0208   -4.5754    0.1663 H   0  0  0  0  0  0  0  0  0  0  0  0
    5.8115   -3.0153   -1.1269 C   0  0  0  0  0  0  0  0  0  0  0  0
    6.7040   -3.5934   -1.4114 H   0  0  0  0  0  0  0  0  0  0  0  0
    5.6092   -1.7319   -1.6637 C   0  0  0  0  0  0  0  0  0  0  0  0
    6.3379   -1.3056   -2.3696 H   0  0  0  0  0  0  0  0  0  0  0  0
    4.4724   -0.9954   -1.3059 C   0  0  0  0  0  0  0  0  0  0  0  0
    4.3111    0.0008   -1.7454 H   0  0  0  0  0  0  0  0  0  0  0  0
    2.7269    0.7767    1.1469 C   0  0  0  0  0  0  0  0  0  0  0  0
    3.5452    1.7861    0.6030 C   0  0  0  0  0  0  0  0  0  0  0  0
    3.7829    1.7952   -0.4706 H   0  0  0  0  0  0  0  0  0  0  0  0
    4.0341    2.8070    1.4279 C   0  0  0  0  0  0  0  0  0  0  0  0
    4.6545    3.6064    0.9968 H   0  0  0  0  0  0  0  0  0  0  0  0
    3.7168    2.8205    2.7961 C   0  0  0  0  0  0  0  0  0  0  0  0
    4.0987    3.6276    3.4393 H   0  0  0  0  0  0  0  0  0  0  0  0
    2.9092    1.8099    3.3399 C   0  0  0  0  0  0  0  0  0  0  0  0
    2.6559    1.8202    4.4107 H   0  0  0  0  0  0  0  0  0  0  0  0
    2.4113    0.7880    2.5192 C   0  0  0  0  0  0  0  0  0  0  0  0
    1.7649   -0.0048    2.9224 H   0  0  0  0  0  0  0  0  0  0  0  0
   -2.6053   -0.9008    2.2354 C   0  0  0  0  0  0  0  0  0  0  0  0
   -3.9977   -0.8145    2.4198 C   0  0  0  0  0  0  0  0  0  0  0  0
   -4.6414   -0.4451    1.6088 H   0  0  0  0  0  0  0  0  0  0  0  0
   -4.5736   -1.2180    3.6370 C   0  0  0  0  0  0  0  0  0  0  0  0
   -5.6649   -1.1565    3.7674 H   0  0  0  0  0  0  0  0  0  0  0  0
   -3.7669   -1.6996    4.6775 C   0  0  0  0  0  0  0  0  0  0  0  0
   -4.2216   -2.0135    5.6293 H   0  0  0  0  0  0  0  0  0  0  0  0
   -2.3759   -1.7977    4.4940 C   0  0  0  0  0  0  0  0  0  0  0  0
   -1.7385   -2.1935    5.2992 H   0  0  0  0  0  0  0  0  0  0  0  0
   -1.7988   -1.4172    3.2765 C   0  0  0  0  0  0  0  0  0  0  0  0
   -0.7157   -1.5357    3.1109 H   0  0  0  0  0  0  0  0  0  0  0  0
   -3.0334    0.1896   -0.4534 C   0  0  0  0  0  0  0  0  0  0  0  0
   -3.2479   -0.3570   -1.7322 C   0  0  0  0  0  0  0  0  0  0  0  0
   -2.6293   -1.2005   -2.0694 H   0  0  0  0  0  0  0  0  0  0  0  0
   -4.2223    0.1911   -2.5803 C   0  0  0  0  0  0  0  0  0  0  0  0
   -4.3763   -0.2417   -3.5800 H   0  0  0  0  0  0  0  0  0  0  0  0
   -4.9849    1.2909   -2.1611 C   0  0  0  0  0  0  0  0  0  0  0  0
   -5.7499    1.7184   -2.8272 H   0  0  0  0  0  0  0  0  0  0  0  0
   -4.7586    1.8579   -0.8956 C   0  0  0  0  0  0  0  0  0  0  0  0
   -5.3429    2.7315   -0.5681 H   0  0  0  0  0  0  0  0  0  0  0  0
   -3.7819    1.3165   -0.0482 C   0  0  0  0  0  0  0  0  0  0  0  0
   -3.5952    1.7763    0.9347 H   0  0  0  0  0  0  0  0  0  0  0  0
  1  3  1  0  0  0  0
  1 47  1  0  0  0  0
  2 20  1  0  0  0  0
  2 58  1  0  0  0  0
  4 19  1  0  0  0  0
  4  1  1  0  0  0  0
  5  4  2  0  0  0  0
  6  5  1  0  0  0  0
  7  9  2  0  0  0  0
  7  5  1  0  0  0  0
  8  7  1  0  0  0  0
  9 18  1  0  0  0  0
 10 12  2  0  0  0  0
 10  9  1  0  0  0  0
 11 10  1  0  0  0  0
 12 14  1  0  0  0  0
 13 12  1  0  0  0  0
 14 15  1  0  0  0  0
 14 16  2  0  0  0  0
 16 17  1  0  0  0  0
 18 16  1  0  0  0  0
 18 19  2  0  0  0  0
 19 35  1  0  0  0  0
 20 21  1  0  0  0  0
 21 23  2  0  0  0  0
 21 22  1  0  0  0  0
 23 24  1  0  0  0  0
 25 26  1  0  0  0  0
 25 23  1  0  0  0  0
 26 27  1  0  0  0  0
 28 29  1  0  0  0  0
 28 26  2  0  0  0  0
 30 28  1  0  0  0  0
 31 30  1  0  0  0  0
 32 30  2  0  0  0  0
 32 34  1  0  0  0  0
 33 32  1  0  0  0  0
 34 25  2  0  0  0  0
 35 34  1  0  0  0  0
 35 20  2  0  0  0  0
 36 37  1  0  0  0  0
 36  1  1  0  0  0  0
 37 38  1  0  0  0  0
 39 37  2  0  0  0  0
 39 40  1  0  0  0  0
 41 39  1  0  0  0  0
 42 41  1  0  0  0  0
 43 45  1  0  0  0  0
 43 41  2  0  0  0  0
 44 43  1  0  0  0  0
 45 36  2  0  0  0  0
 46 45  1  0  0  0  0
 47 56  1  0  0  0  0
 48 47  2  0  0  0  0
 48 50  1  0  0  0  0
 49 48  1  0  0  0  0
 50 52  2  0  0  0  0
 51 50  1  0  0  0  0
 52 54  1  0  0  0  0
 52 53  1  0  0  0  0
 54 55  1  0  0  0  0
 56 57  1  0  0  0  0
 56 54  2  0  0  0  0
 58 59  2  0  0  0  0
 58 67  1  0  0  0  0
 59 61  1  0  0  0  0
 60 59  1  0  0  0  0
 61 62  1  0  0  0  0
 61 63  2  0  0  0  0
 63 64  1  0  0  0  0
 65 63  1  0  0  0  0
 65 66  1  0  0  0  0
 67 65  2  0  0  0  0
 68 67  1  0  0  0  0
 69 78  1  0  0  0  0
 69  2  1  0  0  0  0
 70 69  2  0  0  0  0
 71 70  1  0  0  0  0
 72 74  2  0  0  0  0
 72 70  1  0  0  0  0
 73 72  1  0  0  0  0
 74 76  1  0  0  0  0
 75 74  1  0  0  0  0
 76 77  1  0  0  0  0
 76 78  2  0  0  0  0
 78 79  1  0  0  0  0
M  END
