1,44
 OpenBabel05122313063D

 45 47  0  0  0  0  0  0  0  0999 V2000
    0.6813   -0.1004   -0.0167 P   0  0  0  0  0  0  0  0  0  0  0  0
    1.0033   -0.6932    1.6814 C   0  0  0  0  0  0  0  0  0  0  0  0
    0.7823    0.2773    2.6998 C   0  0  0  0  0  0  0  0  0  0  0  0
    0.9100   -0.0760    4.0561 C   0  0  0  0  0  0  0  0  0  0  0  0
    0.7551    0.6748    4.8428 H   0  0  0  0  0  0  0  0  0  0  0  0
    1.2220   -1.4038    4.3918 C   0  0  0  0  0  0  0  0  0  0  0  0
    1.3179   -1.6798    5.4531 H   0  0  0  0  0  0  0  0  0  0  0  0
    1.3953   -2.3774    3.3962 C   0  0  0  0  0  0  0  0  0  0  0  0
    1.6153   -3.4191    3.6713 H   0  0  0  0  0  0  0  0  0  0  0  0
    1.2799   -2.0196    2.0428 C   0  0  0  0  0  0  0  0  0  0  0  0
    1.3878   -2.7799    1.2585 H   0  0  0  0  0  0  0  0  0  0  0  0
    0.4219    1.4923    2.2380 O   0  0  0  0  0  0  0  0  0  0  0  0
    0.1127    2.5650    3.1111 C   0  0  0  0  0  0  0  0  0  0  0  0
   -0.7214    2.2983    3.7969 H   0  0  0  0  0  0  0  0  0  0  0  0
   -0.2016    3.3882    2.4436 H   0  0  0  0  0  0  0  0  0  0  0  0
    0.9995    2.8660    3.7107 H   0  0  0  0  0  0  0  0  0  0  0  0
    1.2369   -1.3644   -1.2360 C   0  0  0  0  0  0  0  0  0  0  0  0
    2.4661   -2.0796   -1.1894 C   0  0  0  0  0  0  0  0  0  0  0  0
    2.7743   -3.0128   -2.2008 C   0  0  0  0  0  0  0  0  0  0  0  0
    3.7150   -3.5773   -2.1644 H   0  0  0  0  0  0  0  0  0  0  0  0
    1.8882   -3.2165   -3.2690 C   0  0  0  0  0  0  0  0  0  0  0  0
    2.1513   -3.9432   -4.0528 H   0  0  0  0  0  0  0  0  0  0  0  0
    0.6872   -2.4998   -3.3421 C   0  0  0  0  0  0  0  0  0  0  0  0
   -0.0065   -2.6468   -4.1822 H   0  0  0  0  0  0  0  0  0  0  0  0
    0.3722   -1.5867   -2.3265 C   0  0  0  0  0  0  0  0  0  0  0  0
   -0.5738   -1.0213   -2.3605 H   0  0  0  0  0  0  0  0  0  0  0  0
    3.2954   -1.8252   -0.1425 O   0  0  0  0  0  0  0  0  0  0  0  0
    4.5182   -2.5311   -0.0324 C   0  0  0  0  0  0  0  0  0  0  0  0
    4.3532   -3.6274    0.0585 H   0  0  0  0  0  0  0  0  0  0  0  0
    5.0032   -2.1631    0.8904 H   0  0  0  0  0  0  0  0  0  0  0  0
    5.1863   -2.3359   -0.8996 H   0  0  0  0  0  0  0  0  0  0  0  0
    1.8298    1.3416   -0.2183 C   0  0  0  0  0  0  0  0  0  0  0  0
    1.4396    2.5713   -0.7958 C   0  0  0  0  0  0  0  0  0  0  0  0
    2.3765    3.6055   -0.9584 C   0  0  0  0  0  0  0  0  0  0  0  0
    2.0339    4.5362   -1.4339 H   0  0  0  0  0  0  0  0  0  0  0  0
    3.6984    3.4421   -0.5254 C   0  0  0  0  0  0  0  0  0  0  0  0
    4.4237    4.2591   -0.6589 H   0  0  0  0  0  0  0  0  0  0  0  0
    4.0857    2.2404    0.0854 C   0  0  0  0  0  0  0  0  0  0  0  0
    5.1162    2.1067    0.4481 H   0  0  0  0  0  0  0  0  0  0  0  0
    3.1586    1.1997    0.2333 C   0  0  0  0  0  0  0  0  0  0  0  0
    3.4608    0.2567    0.7060 H   0  0  0  0  0  0  0  0  0  0  0  0
   -0.2760    3.0127   -1.2342 S   0  0  0  0  0  0  0  0  0  0  0  0
   -0.9589    3.2769    0.0695 O   0  0  0  0  0  1  0  0  0  0  0  0
   -0.8307    1.7260   -1.9198 O   0  0  0  0  0  1  0  0  0  0  0  0
   -0.1841    4.1261   -2.2010 O   0  0  0  0  0  1  0  0  0  0  0  0
  1  2  1  0  0  0  0
  2 10  2  0  0  0  0
  2  3  1  0  0  0  0
  3  4  2  0  0  0  0
  4  6  1  0  0  0  0
  4  5  1  0  0  0  0
  6  7  1  0  0  0  0
  8  9  1  0  0  0  0
  8  6  2  0  0  0  0
 10  8  1  0  0  0  0
 11 10  1  0  0  0  0
 12  3  1  0  0  0  0
 12 13  1  0  0  0  0
 13 16  1  0  0  0  0
 13 14  1  0  0  0  0
 15 13  1  0  0  0  0
 17 18  1  0  0  0  0
 17  1  1  0  0  0  0
 18 27  1  0  0  0  0
 19 20  1  0  0  0  0
 19 18  2  0  0  0  0
 21 19  1  0  0  0  0
 22 21  1  0  0  0  0
 23 21  2  0  0  0  0
 23 25  1  0  0  0  0
 24 23  1  0  0  0  0
 25 17  2  0  0  0  0
 26 25  1  0  0  0  0
 27 28  1  0  0  0  0
 28 29  1  0  0  0  0
 28 30  1  0  0  0  0
 31 28  1  0  0  0  0
 32  1  1  0  0  0  0
 32 40  1  0  0  0  0
 33 32  2  0  0  0  0
 34 33  1  0  0  0  0
 34 36  2  0  0  0  0
 35 34  1  0  0  0  0
 36 38  1  0  0  0  0
 37 36  1  0  0  0  0
 38 40  2  0  0  0  0
 38 39  1  0  0  0  0
 40 41  1  0  0  0  0
 42 33  1  0  0  0  0
 42 43  1  0  0  0  0
 44 42  1  0  0  0  0
 45 42  1  0  0  0  0
M  END
