1,13
 OpenBabel05122313063D

 49 51  0  0  0  0  0  0  0  0999 V2000
    1.1750    0.2799   -0.1687 P   0  0  0  0  0  0  0  0  0  0  0  0
    1.8562   -0.6738    1.2720 C   0  0  0  0  0  0  0  0  0  0  0  0
    1.0879   -1.5633    2.0608 C   0  0  0  0  0  0  0  0  0  0  0  0
    1.6571   -2.2318    3.1566 C   0  0  0  0  0  0  0  0  0  0  0  0
    1.0060   -2.8965    3.7428 H   0  0  0  0  0  0  0  0  0  0  0  0
    3.0036   -2.0343    3.4868 C   0  0  0  0  0  0  0  0  0  0  0  0
    3.4421   -2.5638    4.3463 H   0  0  0  0  0  0  0  0  0  0  0  0
    3.7807   -1.1494    2.7262 C   0  0  0  0  0  0  0  0  0  0  0  0
    4.8371   -0.9740    2.9794 H   0  0  0  0  0  0  0  0  0  0  0  0
    3.2067   -0.4739    1.6398 C   0  0  0  0  0  0  0  0  0  0  0  0
    3.8288    0.2340    1.0747 H   0  0  0  0  0  0  0  0  0  0  0  0
   -0.6677   -1.9308    1.7435 S   0  0  0  0  0  0  0  0  0  0  0  0
   -1.3098   -0.5216    1.6230 O   0  0  0  0  0  1  0  0  0  0  0  0
   -1.1723   -2.6449    2.9361 O   0  0  0  0  0  1  0  0  0  0  0  0
   -0.6796   -2.6707    0.4410 O   0  0  0  0  0  1  0  0  0  0  0  0
    2.0880   -0.3559   -1.6638 C   0  0  0  0  0  0  0  0  0  0  0  0
    1.6573    0.2670   -2.4803 H   0  0  0  0  0  0  0  0  0  0  0  0
    1.6780   -1.8183   -1.9230 C   0  0  0  0  0  0  0  0  0  0  0  0
    0.5736   -1.9113   -1.9043 H   0  0  0  0  0  0  0  0  0  0  0  0
    2.0440   -2.4512   -1.0848 H   0  0  0  0  0  0  0  0  0  0  0  0
    2.2583   -2.3220   -3.2505 C   0  0  0  0  0  0  0  0  0  0  0  0
    1.9860   -3.3876   -3.3994 H   0  0  0  0  0  0  0  0  0  0  0  0
    1.7885   -1.7587   -4.0886 H   0  0  0  0  0  0  0  0  0  0  0  0
    3.7804   -2.1411   -3.3113 C   0  0  0  0  0  0  0  0  0  0  0  0
    4.1739   -2.4704   -4.2958 H   0  0  0  0  0  0  0  0  0  0  0  0
    4.2553   -2.7981   -2.5482 H   0  0  0  0  0  0  0  0  0  0  0  0
    4.1815   -0.6863   -3.0353 C   0  0  0  0  0  0  0  0  0  0  0  0
    3.7982   -0.0360   -3.8538 H   0  0  0  0  0  0  0  0  0  0  0  0
    5.2864   -0.5776   -3.0407 H   0  0  0  0  0  0  0  0  0  0  0  0
    3.6149   -0.1934   -1.6940 C   0  0  0  0  0  0  0  0  0  0  0  0
    4.0645   -0.7947   -0.8753 H   0  0  0  0  0  0  0  0  0  0  0  0
    3.9080    0.8637   -1.5200 H   0  0  0  0  0  0  0  0  0  0  0  0
    1.8104    1.9991    0.2033 C   0  0  0  0  0  0  0  0  0  0  0  0
    2.9105    1.9164    0.3495 H   0  0  0  0  0  0  0  0  0  0  0  0
    1.5529    2.9919   -0.9412 C   0  0  0  0  0  0  0  0  0  0  0  0
    2.0265    2.6428   -1.8827 H   0  0  0  0  0  0  0  0  0  0  0  0
    0.4589    3.0323   -1.1315 H   0  0  0  0  0  0  0  0  0  0  0  0
    2.0579    4.3962   -0.5795 C   0  0  0  0  0  0  0  0  0  0  0  0
    3.1653    4.3710   -0.4661 H   0  0  0  0  0  0  0  0  0  0  0  0
    1.8456    5.0978   -1.4132 H   0  0  0  0  0  0  0  0  0  0  0  0
    1.4257    4.8985    0.7242 C   0  0  0  0  0  0  0  0  0  0  0  0
    0.3297    5.0216    0.5712 H   0  0  0  0  0  0  0  0  0  0  0  0
    1.8199    5.9027    0.9860 H   0  0  0  0  0  0  0  0  0  0  0  0
    1.6637    3.9096    1.8718 C   0  0  0  0  0  0  0  0  0  0  0  0
    1.1613    4.2574    2.7985 H   0  0  0  0  0  0  0  0  0  0  0  0
    2.7523    3.8717    2.1031 H   0  0  0  0  0  0  0  0  0  0  0  0
    1.1760    2.4995    1.5153 C   0  0  0  0  0  0  0  0  0  0  0  0
    0.0706    2.4989    1.3886 H   0  0  0  0  0  0  0  0  0  0  0  0
    1.3904    1.7923    2.3422 H   0  0  0  0  0  0  0  0  0  0  0  0
  1 33  1  0  0  0  0
  1  2  1  0  0  0  0
  2 10  2  0  0  0  0
  2  3  1  0  0  0  0
  3  4  2  0  0  0  0
  4  6  1  0  0  0  0
  4  5  1  0  0  0  0
  6  7  1  0  0  0  0
  8  9  1  0  0  0  0
  8  6  2  0  0  0  0
 10  8  1  0  0  0  0
 11 10  1  0  0  0  0
 12  3  1  0  0  0  0
 12 14  1  0  0  0  0
 13 12  1  0  0  0  0
 15 12  1  0  0  0  0
 16  1  1  0  0  0  0
 17 16  1  0  0  0  0
 18 19  1  0  0  0  0
 18 16  1  0  0  0  0
 18 20  1  0  0  0  0
 21 18  1  0  0  0  0
 22 21  1  0  0  0  0
 23 21  1  0  0  0  0
 24 21  1  0  0  0  0
 24 27  1  0  0  0  0
 24 26  1  0  0  0  0
 25 24  1  0  0  0  0
 27 30  1  0  0  0  0
 28 27  1  0  0  0  0
 29 27  1  0  0  0  0
 30 16  1  0  0  0  0
 30 32  1  0  0  0  0
 30 31  1  0  0  0  0
 33 34  1  0  0  0  0
 33 47  1  0  0  0  0
 35 38  1  0  0  0  0
 35 33  1  0  0  0  0
 36 35  1  0  0  0  0
 37 35  1  0  0  0  0
 38 39  1  0  0  0  0
 38 41  1  0  0  0  0
 40 38  1  0  0  0  0
 41 43  1  0  0  0  0
 41 44  1  0  0  0  0
 42 41  1  0  0  0  0
 44 46  1  0  0  0  0
 44 45  1  0  0  0  0
 47 44  1  0  0  0  0
 47 49  1  0  0  0  0
 48 47  1  0  0  0  0
M  END
