1,3
 OpenBabel05122313063D

 77 79  0  0  0  0  0  0  0  0999 V2000
    0.1491   -0.1433   -0.4760 P   0  0  0  0  0  0  0  0  0  0  0  0
   -2.4464    0.8022    0.1373 P   0  0  0  0  0  4  0  0  0  0  0  0
   -2.6539    0.0950   -1.2433 O   0  0  0  0  0  1  0  0  0  0  0  0
   -0.6809    0.9789    0.4860 C   0  0  0  0  0  0  0  0  0  0  0  0
   -0.1331    1.8741    1.5565 C   0  0  0  0  0  0  0  0  0  0  0  0
    1.9296   -0.0604   -0.1013 C   0  0  0  0  0  0  0  0  0  0  0  0
    2.4485   -0.6197    1.1045 C   0  0  0  0  0  0  0  0  0  0  0  0
    3.7690   -0.2659    1.4625 C   0  0  0  0  0  0  0  0  0  0  0  0
    4.5735    0.5819    0.6987 C   0  0  0  0  0  0  0  0  0  0  0  0
    4.0493    1.0407   -0.5240 C   0  0  0  0  0  0  0  0  0  0  0  0
    2.7597    0.7288   -0.9760 C   0  0  0  0  0  0  0  0  0  0  0  0
    1.7979   -1.7042    2.0111 C   0  0  0  0  0  0  0  0  0  0  0  0
    1.9957   -1.3543    3.5057 C   0  0  0  0  0  0  0  0  0  0  0  0
    0.2962   -1.9735    1.8225 C   0  0  0  0  0  0  0  0  0  0  0  0
    2.5332   -3.0266    1.6678 C   0  0  0  0  0  0  0  0  0  0  0  0
    5.9928    0.9928    1.1229 C   0  0  0  0  0  0  0  0  0  0  0  0
    6.3933    0.3858    2.4784 C   0  0  0  0  0  0  0  0  0  0  0  0
    7.0017    0.5132    0.0542 C   0  0  0  0  0  0  0  0  0  0  0  0
    6.0528    2.5332    1.2383 C   0  0  0  0  0  0  0  0  0  0  0  0
    2.3528    1.1660   -2.4119 C   0  0  0  0  0  0  0  0  0  0  0  0
    3.4622    1.9993   -3.0890 C   0  0  0  0  0  0  0  0  0  0  0  0
    2.1490   -0.1083   -3.2644 C   0  0  0  0  0  0  0  0  0  0  0  0
    1.0743    2.0388   -2.4501 C   0  0  0  0  0  0  0  0  0  0  0  0
   -3.1837    2.4582    0.1154 C   0  0  0  0  0  0  0  0  0  0  0  0
   -4.4387    2.7227    0.6979 C   0  0  0  0  0  0  0  0  0  0  0  0
   -4.9997    4.0040    0.5889 C   0  0  0  0  0  0  0  0  0  0  0  0
   -4.3145    5.0166   -0.1009 C   0  0  0  0  0  0  0  0  0  0  0  0
   -3.0659    4.7520   -0.6894 C   0  0  0  0  0  0  0  0  0  0  0  0
   -2.4994    3.4751   -0.5848 C   0  0  0  0  0  0  0  0  0  0  0  0
   -3.1795   -0.1640    1.4894 C   0  0  0  0  0  0  0  0  0  0  0  0
   -3.6412   -1.4638    1.1946 C   0  0  0  0  0  0  0  0  0  0  0  0
   -4.1052   -2.2776    2.2399 C   0  0  0  0  0  0  0  0  0  0  0  0
   -4.1138   -1.8031    3.5610 C   0  0  0  0  0  0  0  0  0  0  0  0
   -3.6613   -0.5038    3.8493 C   0  0  0  0  0  0  0  0  0  0  0  0
   -3.1903    0.3183    2.8162 C   0  0  0  0  0  0  0  0  0  0  0  0
    0.9691    1.9539    1.4779 H   0  0  0  0  0  0  0  0  0  0  0  0
   -0.5683    2.8941    1.5007 H   0  0  0  0  0  0  0  0  0  0  0  0
   -0.3619    1.4749    2.5706 H   0  0  0  0  0  0  0  0  0  0  0  0
    4.1808   -0.6930    2.3831 H   0  0  0  0  0  0  0  0  0  0  0  0
    4.6896    1.6643   -1.1571 H   0  0  0  0  0  0  0  0  0  0  0  0
    3.0580   -1.3239    3.8152 H   0  0  0  0  0  0  0  0  0  0  0  0
    1.5409   -0.3716    3.7472 H   0  0  0  0  0  0  0  0  0  0  0  0
    1.4992   -2.1216    4.1328 H   0  0  0  0  0  0  0  0  0  0  0  0
   -0.3426   -1.1206    2.1171 H   0  0  0  0  0  0  0  0  0  0  0  0
    0.0114   -2.8300    2.4673 H   0  0  0  0  0  0  0  0  0  0  0  0
    0.0450   -2.2885    0.7891 H   0  0  0  0  0  0  0  0  0  0  0  0
    3.6280   -2.9413    1.8150 H   0  0  0  0  0  0  0  0  0  0  0  0
    2.1589   -3.8473    2.3139 H   0  0  0  0  0  0  0  0  0  0  0  0
    2.3403   -3.3018    0.6115 H   0  0  0  0  0  0  0  0  0  0  0  0
    5.7104    0.7049    3.2916 H   0  0  0  0  0  0  0  0  0  0  0  0
    6.4021   -0.7224    2.4487 H   0  0  0  0  0  0  0  0  0  0  0  0
    7.4149    0.7182    2.7508 H   0  0  0  0  0  0  0  0  0  0  0  0
    6.9696   -0.5895   -0.0544 H   0  0  0  0  0  0  0  0  0  0  0  0
    8.0336    0.8023    0.3416 H   0  0  0  0  0  0  0  0  0  0  0  0
    6.7937    0.9565   -0.9397 H   0  0  0  0  0  0  0  0  0  0  0  0
    7.0716    2.8587    1.5336 H   0  0  0  0  0  0  0  0  0  0  0  0
    5.8064    3.0281    0.2780 H   0  0  0  0  0  0  0  0  0  0  0  0
    5.3385    2.9017    2.0023 H   0  0  0  0  0  0  0  0  0  0  0  0
    3.6590    2.9527   -2.5573 H   0  0  0  0  0  0  0  0  0  0  0  0
    4.4147    1.4409   -3.1758 H   0  0  0  0  0  0  0  0  0  0  0  0
    3.1392    2.2520   -4.1180 H   0  0  0  0  0  0  0  0  0  0  0  0
    1.3905   -0.7976   -2.8449 H   0  0  0  0  0  0  0  0  0  0  0  0
    3.0957   -0.6796   -3.3401 H   0  0  0  0  0  0  0  0  0  0  0  0
    1.8266    0.1665   -4.2897 H   0  0  0  0  0  0  0  0  0  0  0  0
    0.9731    2.4969   -3.4550 H   0  0  0  0  0  0  0  0  0  0  0  0
    0.1481    1.4544   -2.2852 H   0  0  0  0  0  0  0  0  0  0  0  0
    1.1115    2.8541   -1.6986 H   0  0  0  0  0  0  0  0  0  0  0  0
   -4.9761    1.9252    1.2327 H   0  0  0  0  0  0  0  0  0  0  0  0
   -5.9805    4.2111    1.0424 H   0  0  0  0  0  0  0  0  0  0  0  0
   -4.7580    6.0204   -0.1842 H   0  0  0  0  0  0  0  0  0  0  0  0
   -2.5330    5.5449   -1.2353 H   0  0  0  0  0  0  0  0  0  0  0  0
   -1.5251    3.2569   -1.0506 H   0  0  0  0  0  0  0  0  0  0  0  0
   -3.6246   -1.8395    0.1566 H   0  0  0  0  0  0  0  0  0  0  0  0
   -4.4608   -3.2936    2.0124 H   0  0  0  0  0  0  0  0  0  0  0  0
   -4.4780   -2.4486    4.3749 H   0  0  0  0  0  0  0  0  0  0  0  0
   -3.6749   -0.1301    4.8843 H   0  0  0  0  0  0  0  0  0  0  0  0
   -2.8396    1.3375    3.0430 H   0  0  0  0  0  0  0  0  0  0  0  0
  1  6  1  0  0  0  0
  1  4  2  0  0  0  0
  2  4  1  0  0  0  0
  2 30  1  0  0  0  0
  3  2  1  0  0  0  0
  4  5  1  0  0  0  0
  5 38  1  0  0  0  0
  6  7  1  0  0  0  0
  7  8  2  0  0  0  0
  7 12  1  0  0  0  0
  8 39  1  0  0  0  0
  9 16  1  0  0  0  0
  9  8  1  0  0  0  0
 10  9  2  0  0  0  0
 11 10  1  0  0  0  0
 11  6  2  0  0  0  0
 12 13  1  0  0  0  0
 13 42  1  0  0  0  0
 13 41  1  0  0  0  0
 13 43  1  0  0  0  0
 14 12  1  0  0  0  0
 14 44  1  0  0  0  0
 14 45  1  0  0  0  0
 15 47  1  0  0  0  0
 15 12  1  0  0  0  0
 15 48  1  0  0  0  0
 16 19  1  0  0  0  0
 16 17  1  0  0  0  0
 17 52  1  0  0  0  0
 17 50  1  0  0  0  0
 18 54  1  0  0  0  0
 18 16  1  0  0  0  0
 19 56  1  0  0  0  0
 19 58  1  0  0  0  0
 20 11  1  0  0  0  0
 21 59  1  0  0  0  0
 21 20  1  0  0  0  0
 22 62  1  0  0  0  0
 22 20  1  0  0  0  0
 23 20  1  0  0  0  0
 23 66  1  0  0  0  0
 23 67  1  0  0  0  0
 24  2  1  0  0  0  0
 24 25  1  0  0  0  0
 25 68  1  0  0  0  0
 26 25  2  0  0  0  0
 26 69  1  0  0  0  0
 27 26  1  0  0  0  0
 28 29  1  0  0  0  0
 28 27  2  0  0  0  0
 29 24  2  0  0  0  0
 30 35  1  0  0  0  0
 31 30  2  0  0  0  0
 31 32  1  0  0  0  0
 32 33  2  0  0  0  0
 33 34  1  0  0  0  0
 33 75  1  0  0  0  0
 34 76  1  0  0  0  0
 35 77  1  0  0  0  0
 35 34  2  0  0  0  0
 36  5  1  0  0  0  0
 37  5  1  0  0  0  0
 40 10  1  0  0  0  0
 46 14  1  0  0  0  0
 49 15  1  0  0  0  0
 51 17  1  0  0  0  0
 53 18  1  0  0  0  0
 55 18  1  0  0  0  0
 57 19  1  0  0  0  0
 60 21  1  0  0  0  0
 61 21  1  0  0  0  0
 63 22  1  0  0  0  0
 64 22  1  0  0  0  0
 65 23  1  0  0  0  0
 70 27  1  0  0  0  0
 71 28  1  0  0  0  0
 72 29  1  0  0  0  0
 73 31  1  0  0  0  0
 74 32  1  0  0  0  0
M  END
