1,3
 OpenBabel05122313063D

 31 32  0  0  0  0  0  0  0  0999 V2000
   -1.8773    0.0570    0.6979 P   0  0  0  0  0  0  0  0  0  0  0  0
   -1.9213   -0.3252    2.3167 O   0  0  0  0  0  0  0  0  0  0  0  0
    0.1965   -2.0190    1.1238 O   0  0  0  0  0  1  0  0  0  0  0  0
   -0.1245   -1.9790    2.4800 C   0  0  0  0  0  0  0  0  0  0  0  0
    0.4850   -1.2030    3.0007 H   0  0  0  0  0  0  0  0  0  0  0  0
    0.1102   -2.9679    2.9384 H   0  0  0  0  0  0  0  0  0  0  0  0
   -1.6027   -1.6794    2.6904 C   0  0  0  0  0  0  0  0  0  0  0  0
   -2.2210   -2.3988    2.1094 H   0  0  0  0  0  0  0  0  0  0  0  0
   -1.8634   -1.7629    3.7648 H   0  0  0  0  0  0  0  0  0  0  0  0
   -3.6228   -0.1104    0.1592 C   0  0  0  0  0  0  0  0  0  0  0  0
   -3.9368   -0.3259   -1.1971 C   0  0  0  0  0  0  0  0  0  0  0  0
   -3.1328   -0.4582   -1.9354 H   0  0  0  0  0  0  0  0  0  0  0  0
   -5.2808   -0.3894   -1.5936 C   0  0  0  0  0  0  0  0  0  0  0  0
   -5.5262   -0.5606   -2.6525 H   0  0  0  0  0  0  0  0  0  0  0  0
   -6.3068   -0.2570   -0.6446 C   0  0  0  0  0  0  0  0  0  0  0  0
   -7.3594   -0.3182   -0.9604 H   0  0  0  0  0  0  0  0  0  0  0  0
   -5.9912   -0.0540    0.7090 C   0  0  0  0  0  0  0  0  0  0  0  0
   -6.7943    0.0454    1.4551 H   0  0  0  0  0  0  0  0  0  0  0  0
   -4.6510    0.0250    1.1131 C   0  0  0  0  0  0  0  0  0  0  0  0
   -4.3930    0.1874    2.1704 H   0  0  0  0  0  0  0  0  0  0  0  0
   -1.6795    1.8717    0.7974 C   0  0  0  0  0  0  0  0  0  0  0  0
   -1.3035    2.4997    2.0002 C   0  0  0  0  0  0  0  0  0  0  0  0
   -1.1468    1.8886    2.8995 H   0  0  0  0  0  0  0  0  0  0  0  0
   -1.1350    3.8921    2.0341 C   0  0  0  0  0  0  0  0  0  0  0  0
   -0.8513    4.3837    2.9776 H   0  0  0  0  0  0  0  0  0  0  0  0
   -1.3349    4.6590    0.8735 C   0  0  0  0  0  0  0  0  0  0  0  0
   -1.2045    5.7515    0.9055 H   0  0  0  0  0  0  0  0  0  0  0  0
   -1.7036    4.0291   -0.3261 C   0  0  0  0  0  0  0  0  0  0  0  0
   -1.8538    4.6227   -1.2402 H   0  0  0  0  0  0  0  0  0  0  0  0
   -1.8766    2.6382   -0.3687 C   0  0  0  0  0  0  0  0  0  0  0  0
   -2.1546    2.1464   -1.3125 H   0  0  0  0  0  0  0  0  0  0  0  0
  1 21  1  0  0  0  0
  1  2  1  0  0  0  0
  2  7  1  0  0  0  0
  3  4  1  0  0  0  0
  4  7  1  0  0  0  0
  4  6  1  0  0  0  0
  4  5  1  0  0  0  0
  7  9  1  0  0  0  0
  8  7  1  0  0  0  0
 10  1  1  0  0  0  0
 10 19  1  0  0  0  0
 11 10  2  0  0  0  0
 12 11  1  0  0  0  0
 13 11  1  0  0  0  0
 13 15  2  0  0  0  0
 14 13  1  0  0  0  0
 15 17  1  0  0  0  0
 16 15  1  0  0  0  0
 17 19  2  0  0  0  0
 17 18  1  0  0  0  0
 19 20  1  0  0  0  0
 21 22  1  0  0  0  0
 22 24  2  0  0  0  0
 22 23  1  0  0  0  0
 24 25  1  0  0  0  0
 26 27  1  0  0  0  0
 26 24  1  0  0  0  0
 28 26  2  0  0  0  0
 29 28  1  0  0  0  0
 30 28  1  0  0  0  0
 30 21  2  0  0  0  0
 31 30  1  0  0  0  0
M  END
