1,2
 OpenBabel05122313063D

 37 39  0  0  1  0  0  0  0  0999 V2000
   -1.6258    0.0949   -0.1902 P   0  0  0  0  0  0  0  0  0  0  0  0
   -1.3907   -2.9074   -0.1992 O   0  0  0  0  0  1  0  0  0  0  0  0
   -2.8434   -0.5664   -1.3341 N   0  0  0  0  0  0  0  0  0  0  0  0
   -2.6536    0.3227    1.3115 C   0  0  0  0  0  0  0  0  0  0  0  0
   -2.1859   -0.2415    2.5161 C   0  0  0  0  0  0  0  0  0  0  0  0
   -1.2316   -0.7952    2.5051 H   0  0  0  0  0  0  0  0  0  0  0  0
   -2.9404   -0.1161    3.6921 C   0  0  0  0  0  0  0  0  0  0  0  0
   -2.5731   -0.5614    4.6288 H   0  0  0  0  0  0  0  0  0  0  0  0
   -4.1668    0.5660    3.6682 C   0  0  0  0  0  0  0  0  0  0  0  0
   -4.7610    0.6628    4.5894 H   0  0  0  0  0  0  0  0  0  0  0  0
   -4.6456    1.1144    2.4657 C   0  0  0  0  0  0  0  0  0  0  0  0
   -5.6139    1.6363    2.4446 H   0  0  0  0  0  0  0  0  0  0  0  0
   -3.8961    0.9922    1.2877 C   0  0  0  0  0  0  0  0  0  0  0  0
   -4.2875    1.4129    0.3492 H   0  0  0  0  0  0  0  0  0  0  0  0
   -1.3783    1.7525   -0.9224 C   0  0  0  0  0  0  0  0  0  0  0  0
   -0.7608    1.8173   -2.1912 C   0  0  0  0  0  0  0  0  0  0  0  0
   -0.4837    0.8898   -2.7140 H   0  0  0  0  0  0  0  0  0  0  0  0
   -0.5050    3.0599   -2.7843 C   0  0  0  0  0  0  0  0  0  0  0  0
   -0.0298    3.1037   -3.7757 H   0  0  0  0  0  0  0  0  0  0  0  0
   -0.8528    4.2444   -2.1121 C   0  0  0  0  0  0  0  0  0  0  0  0
   -0.6514    5.2205   -2.5784 H   0  0  0  0  0  0  0  0  0  0  0  0
   -1.4497    4.1820   -0.8440 C   0  0  0  0  0  0  0  0  0  0  0  0
   -1.7093    5.1075   -0.3091 H   0  0  0  0  0  0  0  0  0  0  0  0
   -1.7138    2.9403   -0.2448 C   0  0  0  0  0  0  0  0  0  0  0  0
   -2.1649    2.8995    0.7565 H   0  0  0  0  0  0  0  0  0  0  0  0
   -3.7448    0.1678   -2.0661 C   0  0  0  0  0  0  0  0  0  0  0  0
   -3.6363    1.2548   -2.1527 H   0  0  0  0  0  0  0  0  0  0  0  0
   -4.7005   -0.6883   -2.6218 C   0  0  0  0  0  0  0  0  0  0  0  0
   -5.5264   -0.3881   -3.2757 H   0  0  0  0  0  0  0  0  0  0  0  0
   -4.3800   -1.9936   -2.1959 C   0  0  0  0  0  0  0  0  0  0  0  0
   -4.9110   -2.9156   -2.4573 H   0  0  0  0  0  0  0  0  0  0  0  0
   -3.2201   -1.9187   -1.3953 C   0  0  0  0  0  0  0  0  0  0  0  0
   -2.5045   -3.0139   -0.7835 C   0  0  1  0  0  3  0  0  0  0  0  0
   -3.1124   -4.3923   -0.8585 C   0  0  0  0  0  0  0  0  0  0  0  0
   -2.4918   -5.0929   -0.2731 H   0  0  0  0  0  0  0  0  0  0  0  0
   -3.1492   -4.7407   -1.9110 H   0  0  0  0  0  0  0  0  0  0  0  0
   -4.1501   -4.3973   -0.4713 H   0  0  0  0  0  0  0  0  0  0  0  0
  1  4  1  0  0  0  0
  3  1  1  0  0  0  0
  4  5  1  0  0  0  0
  5  7  2  0  0  0  0
  6  5  1  0  0  0  0
  7  8  1  0  0  0  0
  9  7  1  0  0  0  0
  9 10  1  0  0  0  0
 11  9  2  0  0  0  0
 12 11  1  0  0  0  0
 13  4  2  0  0  0  0
 13 11  1  0  0  0  0
 14 13  1  0  0  0  0
 15 24  1  0  0  0  0
 15  1  1  0  0  0  0
 16 15  2  0  0  0  0
 17 16  1  0  0  0  0
 18 16  1  0  0  0  0
 18 20  2  0  0  0  0
 19 18  1  0  0  0  0
 20 22  1  0  0  0  0
 21 20  1  0  0  0  0
 22 23  1  0  0  0  0
 22 24  2  0  0  0  0
 24 25  1  0  0  0  0
 26  3  1  0  0  0  0
 27 26  1  0  0  0  0
 28 30  1  0  0  0  0
 28 26  2  0  0  0  0
 29 28  1  0  0  0  0
 30 32  2  0  0  0  0
 31 30  1  0  0  0  0
 32  3  1  0  0  0  0
 32 33  1  0  0  0  0
 33  2  1  6  0  0  0
 34 33  1  0  0  0  0
 34 37  1  0  0  0  0
 34 35  1  0  0  0  0
 36 34  1  0  0  0  0
M  END
