1,3
 OpenBabel05122313063D

 42 44  0  0  1  0  0  0  0  0999 V2000
   -0.9233    0.9987    0.0262 P   0  0  1  0  0  0  0  0  0  0  0  0
   -4.5716   -1.9090   -0.1133 N   0  0  0  0  0  0  0  0  0  0  0  0
   -2.3293   -1.8081    0.1502 O   0  0  0  0  0  1  0  0  0  0  0  0
   -2.7324    1.1583    0.5195 C   0  0  2  0  0  0  0  0  0  0  0  0
   -3.4139    0.2428   -0.5670 C   0  0  1  0  0  0  0  0  0  0  0  0
   -2.6354    0.5323   -1.8985 C   0  0  0  0  0  0  0  0  0  0  0  0
   -1.6339    1.6832   -1.5729 C   0  0  1  0  0  0  0  0  0  0  0  0
   -2.4324    2.8849   -1.0773 C   0  0  0  0  0  0  0  0  0  0  0  0
   -3.0356    2.5943    0.1120 C   0  0  0  0  0  0  0  0  0  0  0  0
   -2.5450    4.1242   -1.9048 C   0  0  0  0  0  0  0  0  0  0  0  0
   -3.9332    3.4475    0.9466 C   0  0  0  0  0  0  0  0  0  0  0  0
   -3.4021   -1.2242   -0.1677 C   0  0  2  0  0  3  0  0  0  0  0  0
   -4.5837   -3.2703    0.4181 C   0  0  0  0  0  0  0  0  0  0  0  0
   -5.8625   -1.4014   -0.5733 C   0  0  0  0  0  0  0  0  0  0  0  0
    0.0519    2.2479    0.9203 C   0  0  0  0  0  0  0  0  0  0  0  0
    0.5622    1.8678    2.1796 C   0  0  0  0  0  0  0  0  0  0  0  0
    1.3501    2.7619    2.9162 C   0  0  0  0  0  0  0  0  0  0  0  0
    1.6532    4.0286    2.3910 C   0  0  0  0  0  0  0  0  0  0  0  0
    1.1631    4.4024    1.1297 C   0  0  0  0  0  0  0  0  0  0  0  0
    0.3604    3.5185    0.3940 C   0  0  0  0  0  0  0  0  0  0  0  0
   -2.9866    0.8904    1.5606 H   0  0  0  0  0  0  0  0  0  0  0  0
   -4.4534    0.5999   -0.6566 H   0  0  0  0  0  0  0  0  0  0  0  0
   -3.3273    0.8475   -2.7034 H   0  0  0  0  0  0  0  0  0  0  0  0
   -2.0923   -0.3680   -2.2504 H   0  0  0  0  0  0  0  0  0  0  0  0
   -0.9152    1.8823   -2.3885 H   0  0  0  0  0  0  0  0  0  0  0  0
   -3.1498    4.9066   -1.4094 H   0  0  0  0  0  0  0  0  0  0  0  0
   -3.0126    3.9049   -2.8891 H   0  0  0  0  0  0  0  0  0  0  0  0
   -1.5461    4.5564   -2.1304 H   0  0  0  0  0  0  0  0  0  0  0  0
   -4.0890    4.4498    0.5057 H   0  0  0  0  0  0  0  0  0  0  0  0
   -3.5069    3.5838    1.9637 H   0  0  0  0  0  0  0  0  0  0  0  0
   -4.9310    2.9774    1.0850 H   0  0  0  0  0  0  0  0  0  0  0  0
   -3.6628   -3.4474    0.9983 H   0  0  0  0  0  0  0  0  0  0  0  0
   -4.6444   -4.0175   -0.4017 H   0  0  0  0  0  0  0  0  0  0  0  0
   -5.4651   -3.3986    1.0768 H   0  0  0  0  0  0  0  0  0  0  0  0
   -5.7480   -0.6709   -1.3926 H   0  0  0  0  0  0  0  0  0  0  0  0
   -6.4432   -0.9374    0.2527 H   0  0  0  0  0  0  0  0  0  0  0  0
   -6.4523   -2.2491   -0.9719 H   0  0  0  0  0  0  0  0  0  0  0  0
    0.3590    0.8581    2.5705 H   0  0  0  0  0  0  0  0  0  0  0  0
    1.7430    2.4624    3.8990 H   0  0  0  0  0  0  0  0  0  0  0  0
    2.2842    4.7246    2.9636 H   0  0  0  0  0  0  0  0  0  0  0  0
    1.4093    5.3900    0.7122 H   0  0  0  0  0  0  0  0  0  0  0  0
   -0.0136    3.8190   -0.5940 H   0  0  0  0  0  0  0  0  0  0  0  0
  1  4  1  0  0  0  0
  1 15  1  1  0  0  0
  2 13  1  0  0  0  0
  4 21  1  1  0  0  0
  5 22  1  6  0  0  0
  5 12  1  0  0  0  0
  5  4  1  0  0  0  0
  6  7  1  0  0  0  0
  6  5  1  0  0  0  0
  7 25  1  6  0  0  0
  7  8  1  0  0  0  0
  7  1  1  0  0  0  0
  8  9  2  0  0  0  0
  9  4  1  0  0  0  0
  9 11  1  0  0  0  0
 10 26  1  0  0  0  0
 10  8  1  0  0  0  0
 11 31  1  0  0  0  0
 11 30  1  0  0  0  0
 12  2  1  0  0  0  0
 12  3  1  1  0  0  0
 13 32  1  0  0  0  0
 13 34  1  0  0  0  0
 14  2  1  0  0  0  0
 14 36  1  0  0  0  0
 15 16  1  0  0  0  0
 16 38  1  0  0  0  0
 16 17  2  0  0  0  0
 17 39  1  0  0  0  0
 18 17  1  0  0  0  0
 18 40  1  0  0  0  0
 19 18  2  0  0  0  0
 20 15  2  0  0  0  0
 20 19  1  0  0  0  0
 23  6  1  0  0  0  0
 24  6  1  0  0  0  0
 27 10  1  0  0  0  0
 28 10  1  0  0  0  0
 29 11  1  0  0  0  0
 33 13  1  0  0  0  0
 35 14  1  0  0  0  0
 37 14  1  0  0  0  0
 41 19  1  0  0  0  0
 42 20  1  0  0  0  0
M  END
