1,2
 OpenBabel05122313063D

 44 47  0  0  0  0  0  0  0  0999 V2000
   -2.2271    0.1297    0.0294 P   0  0  0  0  0  0  0  0  0  0  0  0
    0.5558   -0.1490    0.0186 O   0  5  0  0  0  0  0  0  0  0  0  0
    2.3520    0.0516    2.1197 F   0  0  0  0  0  0  0  0  0  0  0  0
    3.2488    3.2307   -1.3162 F   0  0  0  0  0  0  0  0  0  0  0  0
    4.8114   -1.0075    1.7776 F   0  0  0  0  0  0  0  0  0  0  0  0
    1.2750    2.0976    0.4321 C   0  0  0  0  0  0  0  0  0  0  0  0
    5.7649    2.2541   -1.5432 F   0  0  0  0  0  0  0  0  0  0  0  0
   -1.1094    1.5415    0.2754 C   0  0  0  0  0  0  0  0  0  0  0  0
    3.1459    0.5869    1.1787 C   0  0  0  0  0  0  0  0  0  0  0  0
   -0.4409    3.8459    0.6406 C   0  0  0  0  0  0  0  0  0  0  0  0
   -0.6956    4.9035    0.7993 H   0  0  0  0  0  0  0  0  0  0  0  0
    0.2529    1.1025    0.2391 C   0  0  0  0  0  0  0  0  0  0  0  0
    2.6856    1.6535    0.3795 C   0  0  0  0  0  0  0  0  0  0  0  0
    4.9162    1.7081   -0.6646 C   0  0  0  0  0  0  0  0  0  0  0  0
    0.9071    3.4408    0.6094 C   0  0  0  0  0  0  0  0  0  0  0  0
    1.7019    4.1906    0.7412 H   0  0  0  0  0  0  0  0  0  0  0  0
   -1.4518    2.8870    0.4812 C   0  0  0  0  0  0  0  0  0  0  0  0
   -2.5119    3.1854    0.5147 H   0  0  0  0  0  0  0  0  0  0  0  0
    6.5585    0.1144   -0.0214 F   0  0  0  0  0  0  0  0  0  0  0  0
   -3.2078    0.4630   -1.4834 C   0  0  0  0  0  0  0  0  0  0  0  0
    3.6122    2.2121   -0.5237 C   0  0  0  0  0  0  0  0  0  0  0  0
   -3.4478    0.1628    1.3973 C   0  0  0  0  0  0  0  0  0  0  0  0
   -2.7238    1.3586   -2.4586 C   0  0  0  0  0  0  0  0  0  0  0  0
   -1.7941    1.9164   -2.2686 H   0  0  0  0  0  0  0  0  0  0  0  0
    5.3253    0.6119    0.1126 C   0  0  0  0  0  0  0  0  0  0  0  0
    4.4294    0.0430    1.0322 C   0  0  0  0  0  0  0  0  0  0  0  0
   -4.3988   -0.2540   -1.7288 C   0  0  0  0  0  0  0  0  0  0  0  0
   -4.7830   -0.9568   -0.9741 H   0  0  0  0  0  0  0  0  0  0  0  0
   -4.5667    1.0206    1.3839 C   0  0  0  0  0  0  0  0  0  0  0  0
   -4.7717    1.6440    0.5000 H   0  0  0  0  0  0  0  0  0  0  0  0
   -3.2044   -0.6491    2.5230 C   0  0  0  0  0  0  0  0  0  0  0  0
   -2.3351   -1.3256    2.5168 H   0  0  0  0  0  0  0  0  0  0  0  0
   -3.4283    1.5408   -3.6581 C   0  0  0  0  0  0  0  0  0  0  0  0
   -3.0459    2.2461   -4.4117 H   0  0  0  0  0  0  0  0  0  0  0  0
   -4.6157    0.8306   -3.8960 C   0  0  0  0  0  0  0  0  0  0  0  0
   -5.1677    0.9772   -4.8368 H   0  0  0  0  0  0  0  0  0  0  0  0
   -5.1744    0.2648    3.6156 C   0  0  0  0  0  0  0  0  0  0  0  0
   -5.8513    0.3043    4.4827 H   0  0  0  0  0  0  0  0  0  0  0  0
   -5.4248    1.0703    2.4927 C   0  0  0  0  0  0  0  0  0  0  0  0
   -6.2968    1.7419    2.4786 H   0  0  0  0  0  0  0  0  0  0  0  0
   -5.0988   -0.0665   -2.9288 C   0  0  0  0  0  0  0  0  0  0  0  0
   -6.0296   -0.6254   -3.1098 H   0  0  0  0  0  0  0  0  0  0  0  0
   -4.0644   -0.5953    3.6291 C   0  0  0  0  0  0  0  0  0  0  0  0
   -3.8699   -1.2329    4.5049 H   0  0  0  0  0  0  0  0  0  0  0  0
  1  8  1  0  0  0  0
  1 22  1  0  0  0  0
  2 12  1  0  0  0  0
  4 21  1  0  0  0  0
  6 15  1  0  0  0  0
  7 14  1  0  0  0  0
  8 17  2  0  0  0  0
  9  3  1  0  0  0  0
 10 11  1  0  0  0  0
 12  8  1  0  0  0  0
 12  6  2  0  0  0  0
 13  6  1  0  0  0  0
 13  9  2  0  0  0  0
 14 21  2  0  0  0  0
 14 25  1  0  0  0  0
 15 10  2  0  0  0  0
 15 16  1  0  0  0  0
 17 18  1  0  0  0  0
 17 10  1  0  0  0  0
 19 25  1  0  0  0  0
 20  1  1  0  0  0  0
 21 13  1  0  0  0  0
 22 31  1  0  0  0  0
 23 24  1  0  0  0  0
 23 20  2  0  0  0  0
 25 26  2  0  0  0  0
 26  9  1  0  0  0  0
 26  5  1  0  0  0  0
 27 20  1  0  0  0  0
 27 28  1  0  0  0  0
 29 22  2  0  0  0  0
 29 39  1  0  0  0  0
 30 29  1  0  0  0  0
 31 43  2  0  0  0  0
 32 31  1  0  0  0  0
 33 23  1  0  0  0  0
 34 33  1  0  0  0  0
 35 33  2  0  0  0  0
 35 41  1  0  0  0  0
 36 35  1  0  0  0  0
 37 43  1  0  0  0  0
 37 38  1  0  0  0  0
 39 37  2  0  0  0  0
 40 39  1  0  0  0  0
 41 27  2  0  0  0  0
 42 41  1  0  0  0  0
 43 44  1  0  0  0  0
M  CHG  1   2  -1
M  END
