1,2
 OpenBabel05122313063D

 42 44  0  0  0  0  0  0  0  0999 V2000
    1.0156    0.2257    0.1854 P   0  0  0  0  0  0  0  0  0  0  0  0
   -0.1563   -2.2247   -0.6564 O   0  5  0  0  0  0  0  0  0  0  0  0
    1.6624   -3.2665   -1.4837 O   0  0  0  0  0  0  0  0  0  0  0  0
    1.9606   -1.0896   -0.5832 C   0  0  0  0  0  0  0  0  0  0  0  0
    1.1128   -2.1779   -0.8834 C   0  0  0  0  0  0  0  0  0  0  0  0
    0.7841   -4.3405   -1.8005 C   0  0  0  0  0  0  0  0  0  0  0  0
    3.4280   -1.0665   -0.7130 C   0  0  0  0  0  0  0  0  0  0  0  0
    4.2197   -2.2378   -0.5723 C   0  0  0  0  0  0  0  0  0  0  0  0
    5.6156   -2.1901   -0.6661 C   0  0  0  0  0  0  0  0  0  0  0  0
    6.2819   -0.9739   -0.8919 C   0  0  0  0  0  0  0  0  0  0  0  0
    5.5208    0.1967   -1.0272 C   0  0  0  0  0  0  0  0  0  0  0  0
    4.1226    0.1499   -0.9437 C   0  0  0  0  0  0  0  0  0  0  0  0
    1.7748    0.6571    1.7951 C   0  0  0  0  0  0  0  0  0  0  0  0
    2.8883    1.5136    1.9222 C   0  0  0  0  0  0  0  0  0  0  0  0
    3.4737    1.7223    3.1797 C   0  0  0  0  0  0  0  0  0  0  0  0
    2.9522    1.0849    4.3168 C   0  0  0  0  0  0  0  0  0  0  0  0
    1.8366    0.2406    4.1966 C   0  0  0  0  0  0  0  0  0  0  0  0
    1.2478    0.0278    2.9426 C   0  0  0  0  0  0  0  0  0  0  0  0
    1.0704    1.7558   -0.8262 C   0  0  0  0  0  0  0  0  0  0  0  0
    0.8320    3.0191   -0.2471 C   0  0  0  0  0  0  0  0  0  0  0  0
    0.7198    4.1566   -1.0594 C   0  0  0  0  0  0  0  0  0  0  0  0
    0.8363    4.0434   -2.4540 C   0  0  0  0  0  0  0  0  0  0  0  0
    1.0680    2.7853   -3.0358 C   0  0  0  0  0  0  0  0  0  0  0  0
    1.1819    1.6455   -2.2273 C   0  0  0  0  0  0  0  0  0  0  0  0
    0.2967   -4.7533   -0.8924 H   0  0  0  0  0  0  0  0  0  0  0  0
    1.4150   -5.1166   -2.2721 H   0  0  0  0  0  0  0  0  0  0  0  0
   -0.0109   -4.0232   -2.5078 H   0  0  0  0  0  0  0  0  0  0  0  0
    3.7224   -3.1973   -0.3818 H   0  0  0  0  0  0  0  0  0  0  0  0
    6.1945   -3.1200   -0.5486 H   0  0  0  0  0  0  0  0  0  0  0  0
    7.3799   -0.9403   -0.9599 H   0  0  0  0  0  0  0  0  0  0  0  0
    6.0185    1.1622   -1.2101 H   0  0  0  0  0  0  0  0  0  0  0  0
    3.5500    1.0773   -1.0843 H   0  0  0  0  0  0  0  0  0  0  0  0
    3.3000    2.0188    1.0376 H   0  0  0  0  0  0  0  0  0  0  0  0
    4.3473    2.3858    3.2698 H   0  0  0  0  0  0  0  0  0  0  0  0
    3.4138    1.2523    5.3021 H   0  0  0  0  0  0  0  0  0  0  0  0
    1.4139   -0.2481    5.0876 H   0  0  0  0  0  0  0  0  0  0  0  0
    0.3550   -0.6084    2.8474 H   0  0  0  0  0  0  0  0  0  0  0  0
    0.7215    3.1099    0.8440 H   0  0  0  0  0  0  0  0  0  0  0  0
    0.5284    5.1374   -0.5984 H   0  0  0  0  0  0  0  0  0  0  0  0
    0.7460    4.9374   -3.0896 H   0  0  0  0  0  0  0  0  0  0  0  0
    1.1655    2.6920   -4.1284 H   0  0  0  0  0  0  0  0  0  0  0  0
    1.3698    0.6540   -2.6706 H   0  0  0  0  0  0  0  0  0  0  0  0
  1 13  1  0  0  0  0
  3  5  1  0  0  0  0
  4  1  1  0  0  0  0
  5  2  1  0  0  0  0
  5  4  2  0  0  0  0
  6  3  1  0  0  0  0
  6 25  1  0  0  0  0
  7  4  1  0  0  0  0
  7  8  1  0  0  0  0
  8 28  1  0  0  0  0
  9  8  2  0  0  0  0
  9 29  1  0  0  0  0
 10  9  1  0  0  0  0
 11 12  1  0  0  0  0
 11 10  2  0  0  0  0
 12  7  2  0  0  0  0
 13 14  2  0  0  0  0
 13 18  1  0  0  0  0
 14 15  1  0  0  0  0
 15 34  1  0  0  0  0
 15 16  2  0  0  0  0
 16 35  1  0  0  0  0
 17 16  1  0  0  0  0
 17 36  1  0  0  0  0
 18 17  2  0  0  0  0
 19 20  1  0  0  0  0
 19  1  1  0  0  0  0
 20 38  1  0  0  0  0
 21 39  1  0  0  0  0
 21 20  2  0  0  0  0
 22 21  1  0  0  0  0
 23 22  2  0  0  0  0
 23 24  1  0  0  0  0
 24 19  2  0  0  0  0
 26  6  1  0  0  0  0
 27  6  1  0  0  0  0
 30 10  1  0  0  0  0
 31 11  1  0  0  0  0
 32 12  1  0  0  0  0
 33 14  1  0  0  0  0
 37 18  1  0  0  0  0
 40 22  1  0  0  0  0
 41 23  1  0  0  0  0
 42 24  1  0  0  0  0
M  CHG  1   2  -1
M  END
