1,2
 OpenBabel05122313063D

 31 30  0  0  1  0  0  0  0  0999 V2000
   -2.7234   -0.0461   -0.1171 P   0  0  0  0  0  0  0  0  0  0  0  0
   -0.5634    1.9787   -0.0153 O   0  0  0  0  0  1  0  0  0  0  0  0
   -1.8550    3.7447   -0.5403 O   0  0  0  0  0  0  0  0  0  0  0  0
   -2.7279    1.5827   -1.0371 C   0  0  0  0  0  0  0  0  0  0  0  0
   -2.3860    1.2850   -2.0572 H   0  0  0  0  0  0  0  0  0  0  0  0
   -3.6850    2.1351   -1.0962 H   0  0  0  0  0  0  0  0  0  0  0  0
   -1.6161    2.4296   -0.4832 C   0  0  1  0  0  3  0  0  0  0  0  0
   -0.8040    4.5971   -0.0498 C   0  0  0  0  0  0  0  0  0  0  0  0
   -1.1865    5.6284   -0.1404 H   0  0  0  0  0  0  0  0  0  0  0  0
    0.1139    4.4678   -0.6567 H   0  0  0  0  0  0  0  0  0  0  0  0
   -0.5686    4.3559    1.0056 H   0  0  0  0  0  0  0  0  0  0  0  0
   -3.6465    0.2949    1.4757 C   0  0  0  0  0  0  0  0  0  0  0  0
   -4.6792    0.5859    1.1840 H   0  0  0  0  0  0  0  0  0  0  0  0
   -3.6892   -0.9906    2.3118 C   0  0  0  0  0  0  0  0  0  0  0  0
   -2.6610   -1.3273    2.5538 H   0  0  0  0  0  0  0  0  0  0  0  0
   -4.1956   -1.8240    1.7855 H   0  0  0  0  0  0  0  0  0  0  0  0
   -4.2320   -0.8119    3.2629 H   0  0  0  0  0  0  0  0  0  0  0  0
   -3.0095    1.4533    2.2518 C   0  0  0  0  0  0  0  0  0  0  0  0
   -3.0869    2.4179    1.7107 H   0  0  0  0  0  0  0  0  0  0  0  0
   -1.9382    1.2491    2.4533 H   0  0  0  0  0  0  0  0  0  0  0  0
   -3.5264    1.5828    3.2251 H   0  0  0  0  0  0  0  0  0  0  0  0
   -3.8270   -1.2098   -1.0807 C   0  0  0  0  0  0  0  0  0  0  0  0
   -3.5951   -2.1779   -0.5813 H   0  0  0  0  0  0  0  0  0  0  0  0
   -5.3262   -0.9154   -0.9582 C   0  0  0  0  0  0  0  0  0  0  0  0
   -5.5749    0.0963   -1.3425 H   0  0  0  0  0  0  0  0  0  0  0  0
   -5.7019   -0.9913    0.0806 H   0  0  0  0  0  0  0  0  0  0  0  0
   -5.8988   -1.6441   -1.5691 H   0  0  0  0  0  0  0  0  0  0  0  0
   -3.3844   -1.3151   -2.5449 C   0  0  0  0  0  0  0  0  0  0  0  0
   -2.2844   -1.4017   -2.6508 H   0  0  0  0  0  0  0  0  0  0  0  0
   -3.6996   -0.4192   -3.1201 H   0  0  0  0  0  0  0  0  0  0  0  0
   -3.8687   -2.1947   -3.0166 H   0  0  0  0  0  0  0  0  0  0  0  0
  1 12  1  0  0  0  0
  3  7  1  0  0  0  0
  3  8  1  0  0  0  0
  4  7  1  0  0  0  0
  4  1  1  0  0  0  0
  5  4  1  0  0  0  0
  6  4  1  0  0  0  0
  7  2  1  6  0  0  0
  8 11  1  0  0  0  0
  9  8  1  0  0  0  0
 10  8  1  0  0  0  0
 12 18  1  0  0  0  0
 12 14  1  0  0  0  0
 13 12  1  0  0  0  0
 14 15  1  0  0  0  0
 14 17  1  0  0  0  0
 16 14  1  0  0  0  0
 18 20  1  0  0  0  0
 18 21  1  0  0  0  0
 19 18  1  0  0  0  0
 22 24  1  0  0  0  0
 22 23  1  0  0  0  0
 22  1  1  0  0  0  0
 24 26  1  0  0  0  0
 25 24  1  0  0  0  0
 27 24  1  0  0  0  0
 28 22  1  0  0  0  0
 29 28  1  0  0  0  0
 30 28  1  0  0  0  0
 31 28  1  0  0  0  0
M  END
