24,48
 OpenBabel05122313063D

 70 76  0  0  0  0  0  0  0  0999 V2000
   -3.2902    1.6654    2.2802 C   0  0  0  0  0  0  0  0  0  0  0  0
   -2.2637    2.0221    2.4577 H   0  0  0  0  0  0  0  0  0  0  0  0
   -4.3284    1.9948    3.1685 C   0  0  0  0  0  0  0  0  0  0  0  0
   -4.1126    2.6071    4.0569 H   0  0  0  0  0  0  0  0  0  0  0  0
   -5.6441    1.5530    2.9289 C   0  0  0  0  0  0  0  0  0  0  0  0
   -6.4434    1.8227    3.6354 H   0  0  0  0  0  0  0  0  0  0  0  0
   -5.9509    0.7763    1.7978 C   0  0  0  0  0  0  0  0  0  0  0  0
   -6.9830    0.4392    1.6180 H   0  0  0  0  0  0  0  0  0  0  0  0
   -4.9232    0.4400    0.9050 C   0  0  0  0  0  0  0  0  0  0  0  0
   -4.9251   -0.3462   -0.3374 C   0  0  0  0  0  0  0  0  0  0  0  0
   -5.9499   -1.0253   -1.0125 C   0  0  0  0  0  0  0  0  0  0  0  0
   -6.9809   -1.0138   -0.6273 H   0  0  0  0  0  0  0  0  0  0  0  0
   -5.6377   -1.7295   -2.1886 C   0  0  0  0  0  0  0  0  0  0  0  0
   -6.4333   -2.2668   -2.7266 H   0  0  0  0  0  0  0  0  0  0  0  0
   -4.3197   -1.7638   -2.6848 C   0  0  0  0  0  0  0  0  0  0  0  0
   -4.0966   -2.3303   -3.6011 H   0  0  0  0  0  0  0  0  0  0  0  0
   -3.2843   -1.0885   -2.0167 C   0  0  0  0  0  0  0  0  0  0  0  0
   -2.2488   -1.1325   -2.3874 H   0  0  0  0  0  0  0  0  0  0  0  0
   -3.5958   -0.3789   -0.8512 C   0  0  0  0  0  0  0  0  0  0  0  0
   -2.7219    0.3762    0.0747 C   0  0  0  0  0  0  0  0  0  0  0  0
   -3.5905    0.8854    1.1560 C   0  0  0  0  0  0  0  0  0  0  0  0
   -1.3988    0.4865   -0.0380 C   0  0  0  0  0  0  0  0  0  0  0  0
   -0.0975    0.3848   -0.1363 C   0  0  0  0  0  0  0  0  0  0  0  0
    0.8551   -1.1366    0.4025 P   0  0  0  0  0  0  0  0  0  0  0  0
    1.2714   -0.7210    2.1422 C   0  0  0  0  0  0  0  0  0  0  0  0
    0.3511   -0.0451    2.9722 C   0  0  0  0  0  0  0  0  0  0  0  0
   -0.6455    0.2257    2.5931 H   0  0  0  0  0  0  0  0  0  0  0  0
    0.7135    0.3120    4.2783 C   0  0  0  0  0  0  0  0  0  0  0  0
   -0.0111    0.8356    4.9206 H   0  0  0  0  0  0  0  0  0  0  0  0
    1.9993    0.0128    4.7575 C   0  0  0  0  0  0  0  0  0  0  0  0
    2.2867    0.3031    5.7797 H   0  0  0  0  0  0  0  0  0  0  0  0
    2.9171   -0.6534    3.9306 C   0  0  0  0  0  0  0  0  0  0  0  0
    3.9265   -0.8874    4.3010 H   0  0  0  0  0  0  0  0  0  0  0  0
    2.5601   -1.0252    2.6256 C   0  0  0  0  0  0  0  0  0  0  0  0
    3.2673   -1.5599    1.9714 H   0  0  0  0  0  0  0  0  0  0  0  0
   -0.4199   -2.4435    0.3615 C   0  0  0  0  0  0  0  0  0  0  0  0
   -0.4317   -3.2803   -0.7732 C   0  0  0  0  0  0  0  0  0  0  0  0
    0.3869   -3.2061   -1.5067 H   0  0  0  0  0  0  0  0  0  0  0  0
   -1.4780   -4.1965   -0.9497 C   0  0  0  0  0  0  0  0  0  0  0  0
   -1.4852   -4.8503   -1.8347 H   0  0  0  0  0  0  0  0  0  0  0  0
   -2.5108   -4.2786   -0.0019 C   0  0  0  0  0  0  0  0  0  0  0  0
   -3.3377   -4.9896   -0.1493 H   0  0  0  0  0  0  0  0  0  0  0  0
   -2.4872   -3.4593    1.1381 C   0  0  0  0  0  0  0  0  0  0  0  0
   -3.2915   -3.5278    1.8858 H   0  0  0  0  0  0  0  0  0  0  0  0
   -1.4407   -2.5451    1.3274 C   0  0  0  0  0  0  0  0  0  0  0  0
   -1.4261   -1.9110    2.2254 H   0  0  0  0  0  0  0  0  0  0  0  0
    1.0625    1.4444   -1.0710 P   0  0  0  0  0  4  0  0  0  0  0  0
    1.7641    0.5348   -2.1193 O   0  0  0  0  0  1  0  0  0  0  0  0
    2.2276    2.0814    0.1605 C   0  0  0  0  0  0  0  0  0  0  0  0
    1.7710    2.6686    1.3583 C   0  0  0  0  0  0  0  0  0  0  0  0
    0.6932    2.8179    1.5274 H   0  0  0  0  0  0  0  0  0  0  0  0
    2.6959    3.0296    2.3463 C   0  0  0  0  0  0  0  0  0  0  0  0
    2.3446    3.4717    3.2904 H   0  0  0  0  0  0  0  0  0  0  0  0
    4.0671    2.8002    2.1391 C   0  0  0  0  0  0  0  0  0  0  0  0
    4.7899    3.0692    2.9244 H   0  0  0  0  0  0  0  0  0  0  0  0
    4.5178    2.2178    0.9439 C   0  0  0  0  0  0  0  0  0  0  0  0
    5.5899    2.0270    0.7883 H   0  0  0  0  0  0  0  0  0  0  0  0
    3.6027    1.8510   -0.0543 C   0  0  0  0  0  0  0  0  0  0  0  0
    3.9455    1.3503   -0.9756 H   0  0  0  0  0  0  0  0  0  0  0  0
    0.1081    2.7763   -1.8282 C   0  0  0  0  0  0  0  0  0  0  0  0
   -0.9551    2.4267   -2.6889 C   0  0  0  0  0  0  0  0  0  0  0  0
   -1.1844    1.3685   -2.8851 H   0  0  0  0  0  0  0  0  0  0  0  0
   -1.7142    3.4346   -3.2964 C   0  0  0  0  0  0  0  0  0  0  0  0
   -2.5455    3.1636   -3.9640 H   0  0  0  0  0  0  0  0  0  0  0  0
   -1.4130    4.7855   -3.0538 C   0  0  0  0  0  0  0  0  0  0  0  0
   -2.0118    5.5747   -3.5332 H   0  0  0  0  0  0  0  0  0  0  0  0
   -0.3499    5.1325   -2.2052 C   0  0  0  0  0  0  0  0  0  0  0  0
   -0.1115    6.1909   -2.0220 H   0  0  0  0  0  0  0  0  0  0  0  0
    0.4147    4.1305   -1.5897 C   0  0  0  0  0  0  0  0  0  0  0  0
    1.2497    4.3972   -0.9245 H   0  0  0  0  0  0  0  0  0  0  0  0
  1  2  1  0  0  0  0
  1  3  1  0  0  0  0
  3  4  1  0  0  0  0
  5  3  2  0  0  0  0
  5  6  1  0  0  0  0
  7  5  1  0  0  0  0
  8  7  1  0  0  0  0
  9 21  1  0  0  0  0
  9  7  2  0  0  0  0
 10  9  1  0  0  0  0
 11 12  1  0  0  0  0
 11 10  2  0  0  0  0
 13 11  1  0  0  0  0
 14 13  1  0  0  0  0
 15 13  2  0  0  0  0
 15 17  1  0  0  0  0
 16 15  1  0  0  0  0
 17 19  2  0  0  0  0
 18 17  1  0  0  0  0
 19 10  1  0  0  0  0
 19 20  1  0  0  0  0
 20 21  1  0  0  0  0
 21  1  2  0  0  0  0
 22 20  2  0  0  0  0
 23 22  2  0  0  0  0
 23 24  1  0  0  0  0
 24 25  1  0  0  0  0
 25 34  2  0  0  0  0
 25 26  1  0  0  0  0
 26 28  2  0  0  0  0
 27 26  1  0  0  0  0
 28 30  1  0  0  0  0
 28 29  1  0  0  0  0
 30 31  1  0  0  0  0
 32 33  1  0  0  0  0
 32 30  2  0  0  0  0
 34 32  1  0  0  0  0
 35 34  1  0  0  0  0
 36 24  1  0  0  0  0
 36 45  1  0  0  0  0
 37 36  2  0  0  0  0
 38 37  1  0  0  0  0
 39 37  1  0  0  0  0
 39 41  2  0  0  0  0
 40 39  1  0  0  0  0
 41 43  1  0  0  0  0
 42 41  1  0  0  0  0
 43 45  2  0  0  0  0
 43 44  1  0  0  0  0
 45 46  1  0  0  0  0
 47 23  1  0  0  0  0
 47 49  1  0  0  0  0
 48 47  1  0  0  0  0
 49 50  1  0  0  0  0
 50 51  1  0  0  0  0
 50 52  2  0  0  0  0
 52 53  1  0  0  0  0
 54 52  1  0  0  0  0
 54 55  1  0  0  0  0
 56 54  2  0  0  0  0
 57 56  1  0  0  0  0
 58 49  2  0  0  0  0
 58 56  1  0  0  0  0
 59 58  1  0  0  0  0
 60 69  1  0  0  0  0
 60 47  1  0  0  0  0
 61 60  2  0  0  0  0
 62 61  1  0  0  0  0
 63 65  2  0  0  0  0
 63 61  1  0  0  0  0
 64 63  1  0  0  0  0
 65 67  1  0  0  0  0
 66 65  1  0  0  0  0
 67 68  1  0  0  0  0
 67 69  2  0  0  0  0
 69 70  1  0  0  0  0
M  END
