1,3
 OpenBabel05122313063D

 47 49  0  0  0  0  0  0  0  0999 V2000
    0.8545    0.3464   -0.0296 P   0  0  0  0  0  0  0  0  0  0  0  0
   -1.2871    1.1705    2.3660 S   0  0  0  0  0  0  0  0  0  0  0  0
   -1.6388   -0.2857    1.9294 O   0  0  0  0  0  1  0  0  0  0  0  0
   -1.4106    2.1244    1.2268 O   0  0  0  0  0  1  0  0  0  0  0  0
    2.2347   -0.6608   -0.7153 C   0  0  0  0  0  0  0  0  0  0  0  0
    1.4136    0.6702    1.7016 C   0  0  0  0  0  0  0  0  0  0  0  0
    3.2130    0.8461    3.3467 C   0  0  0  0  0  0  0  0  0  0  0  0
    4.2828    0.7634    3.5918 H   0  0  0  0  0  0  0  0  0  0  0  0
   -1.9556    1.5059    3.6427 O   0  0  0  0  0  1  0  0  0  0  0  0
    3.3301   -2.8590   -0.7399 C   0  0  0  0  0  0  0  0  0  0  0  0
    0.9538    1.9748   -0.8633 C   0  0  0  0  0  0  0  0  0  0  0  0
    0.4931    1.0466    2.7066 C   0  0  0  0  0  0  0  0  0  0  0  0
    4.2787   -2.3406   -1.6626 C   0  0  0  0  0  0  0  0  0  0  0  0
    5.0860   -2.9814   -2.0429 H   0  0  0  0  0  0  0  0  0  0  0  0
    2.7770    0.5613    2.0430 C   0  0  0  0  0  0  0  0  0  0  0  0
    3.5030    0.2465    1.2785 H   0  0  0  0  0  0  0  0  0  0  0  0
    3.1730   -0.1572   -1.6383 C   0  0  0  0  0  0  0  0  0  0  0  0
    3.1108    0.8825   -1.9871 H   0  0  0  0  0  0  0  0  0  0  0  0
    2.0285    2.8516   -0.6195 C   0  0  0  0  0  0  0  0  0  0  0  0
    2.8174    2.5929    0.1006 H   0  0  0  0  0  0  0  0  0  0  0  0
    1.0438    4.4340   -2.1943 C   0  0  0  0  0  0  0  0  0  0  0  0
    1.0805    5.4061   -2.7120 H   0  0  0  0  0  0  0  0  0  0  0  0
   -1.0529    3.9178   -3.3109 N   0  0  0  0  0  0  0  0  0  0  0  0
   -1.0756    4.8971   -3.5895 H   0  0  0  0  0  0  0  0  0  0  0  0
    0.9263    1.3237    4.0099 C   0  0  0  0  0  0  0  0  0  0  0  0
    0.1671    1.6038    4.7549 H   0  0  0  0  0  0  0  0  0  0  0  0
    3.3745   -4.1639   -0.3042 N   0  0  0  0  0  0  0  0  0  0  0  0
    2.7277   -4.4203    0.4385 H   0  0  0  0  0  0  0  0  0  0  0  0
    2.3053   -1.9931   -0.2818 C   0  0  0  0  0  0  0  0  0  0  0  0
    1.5444   -2.3761    0.4195 H   0  0  0  0  0  0  0  0  0  0  0  0
   -0.0779    2.3218   -1.7483 C   0  0  0  0  0  0  0  0  0  0  0  0
   -0.9233    1.6313   -1.8663 H   0  0  0  0  0  0  0  0  0  0  0  0
    4.1849   -1.0143   -2.1005 C   0  0  0  0  0  0  0  0  0  0  0  0
    4.9254   -0.6373   -2.8230 H   0  0  0  0  0  0  0  0  0  0  0  0
    2.2889    1.2302    4.3297 C   0  0  0  0  0  0  0  0  0  0  0  0
    2.6278    1.4508    5.3535 H   0  0  0  0  0  0  0  0  0  0  0  0
    2.0577    4.0806   -1.3002 C   0  0  0  0  0  0  0  0  0  0  0  0
    2.8858    4.7833   -1.1205 H   0  0  0  0  0  0  0  0  0  0  0  0
   -2.2779    3.1659   -3.4465 C   0  0  0  0  0  0  0  0  0  0  0  0
   -2.9375    3.6722   -4.1760 H   0  0  0  0  0  0  0  0  0  0  0  0
   -2.8347    3.0587   -2.4855 H   0  0  0  0  0  0  0  0  0  0  0  0
   -2.0819    2.1409   -3.8307 H   0  0  0  0  0  0  0  0  0  0  0  0
   -0.0515    3.5621   -2.4324 C   0  0  0  0  0  0  0  0  0  0  0  0
    4.4271   -5.0890   -0.6358 C   0  0  0  0  0  0  0  0  0  0  0  0
    4.2278   -6.0604   -0.1460 H   0  0  0  0  0  0  0  0  0  0  0  0
    5.4343   -4.7403   -0.3048 H   0  0  0  0  0  0  0  0  0  0  0  0
    4.4854   -5.2750   -1.7319 H   0  0  0  0  0  0  0  0  0  0  0  0
  1  6  1  0  0  0  0
  2 12  1  0  0  0  0
  2  9  1  0  0  0  0
  3  2  1  0  0  0  0
  4  2  1  0  0  0  0
  5 29  1  0  0  0  0
  5  1  1  0  0  0  0
  6 15  2  0  0  0  0
  6 12  1  0  0  0  0
  7  8  1  0  0  0  0
  7 35  2  0  0  0  0
 10 27  1  0  0  0  0
 10 29  2  0  0  0  0
 11 19  1  0  0  0  0
 11  1  1  0  0  0  0
 12 25  2  0  0  0  0
 13 10  1  0  0  0  0
 14 13  1  0  0  0  0
 15  7  1  0  0  0  0
 16 15  1  0  0  0  0
 17  5  2  0  0  0  0
 18 17  1  0  0  0  0
 19 20  1  0  0  0  0
 21 37  1  0  0  0  0
 22 21  1  0  0  0  0
 23 43  1  0  0  0  0
 24 23  1  0  0  0  0
 25 35  1  0  0  0  0
 25 26  1  0  0  0  0
 27 28  1  0  0  0  0
 29 30  1  0  0  0  0
 31 11  2  0  0  0  0
 32 31  1  0  0  0  0
 33 13  2  0  0  0  0
 33 17  1  0  0  0  0
 34 33  1  0  0  0  0
 35 36  1  0  0  0  0
 37 38  1  0  0  0  0
 37 19  2  0  0  0  0
 39 23  1  0  0  0  0
 39 41  1  0  0  0  0
 40 39  1  0  0  0  0
 42 39  1  0  0  0  0
 43 21  2  0  0  0  0
 43 31  1  0  0  0  0
 44 46  1  0  0  0  0
 44 27  1  0  0  0  0
 44 45  1  0  0  0  0
 47 44  1  0  0  0  0
M  END
