1,2
 OpenBabel05122313063D

 45 46  0  0  0  0  0  0  0  0999 V2000
   -1.6767    0.0614    0.2816 P   0  0  1  0  0  0  0  0  0  0  0  0
   -0.5127   -2.0015   -1.3347 O   0  5  0  0  0  0  0  0  0  0  0  0
   -1.8165   -2.2316   -1.1612 C   0  0  0  0  0  0  0  0  0  0  0  0
   -2.4143   -3.3498   -1.7979 C   0  0  0  0  0  0  0  0  0  0  0  0
   -3.7792   -3.6028   -1.6465 C   0  0  0  0  0  0  0  0  0  0  0  0
   -4.5883   -2.7533   -0.8662 C   0  0  0  0  0  0  0  0  0  0  0  0
   -4.0122   -1.6415   -0.2390 C   0  0  0  0  0  0  0  0  0  0  0  0
   -2.6339   -1.3661   -0.3724 C   0  0  0  0  0  0  0  0  0  0  0  0
   -2.4345    1.7003   -0.4057 C   0  0  0  0  0  0  0  0  0  0  0  0
   -3.8708    1.8388    0.1247 C   0  0  0  0  0  0  0  0  0  0  0  0
   -1.5837    2.8266    0.2145 C   0  0  0  0  0  0  0  0  0  0  0  0
   -2.3762    1.7481   -1.9978 C   0  0  0  0  0  0  0  0  0  0  0  0
   -3.4934    0.9155   -2.6604 C   0  0  0  0  0  0  0  0  0  0  0  0
   -1.0195    1.2529   -2.5420 C   0  0  0  0  0  0  0  0  0  0  0  0
   -2.5494    3.2097   -2.4751 C   0  0  0  0  0  0  0  0  0  0  0  0
   -1.9558    0.1291    2.1080 C   0  0  0  0  0  0  0  0  0  0  0  0
   -3.0222   -0.5446    2.7394 C   0  0  0  0  0  0  0  0  0  0  0  0
   -3.1857   -0.4727    4.1313 C   0  0  0  0  0  0  0  0  0  0  0  0
   -2.2818    0.2621    4.9135 C   0  0  0  0  0  0  0  0  0  0  0  0
   -1.1997    0.9083    4.2967 C   0  0  0  0  0  0  0  0  0  0  0  0
   -1.0295    0.8399    2.9056 C   0  0  0  0  0  0  0  0  0  0  0  0
   -1.7706   -4.0035   -2.4045 H   0  0  0  0  0  0  0  0  0  0  0  0
   -4.2254   -4.4777   -2.1448 H   0  0  0  0  0  0  0  0  0  0  0  0
   -5.6635   -2.9545   -0.7532 H   0  0  0  0  0  0  0  0  0  0  0  0
   -4.6568   -0.9674    0.3427 H   0  0  0  0  0  0  0  0  0  0  0  0
   -3.8797    1.8634    1.2321 H   0  0  0  0  0  0  0  0  0  0  0  0
   -4.5366    1.0232   -0.2094 H   0  0  0  0  0  0  0  0  0  0  0  0
   -4.3121    2.7941   -0.2286 H   0  0  0  0  0  0  0  0  0  0  0  0
   -2.0645    3.8069    0.0285 H   0  0  0  0  0  0  0  0  0  0  0  0
   -1.5136    2.7159    1.3131 H   0  0  0  0  0  0  0  0  0  0  0  0
   -0.5582    2.8630   -0.1934 H   0  0  0  0  0  0  0  0  0  0  0  0
   -3.4687   -0.1456   -2.3536 H   0  0  0  0  0  0  0  0  0  0  0  0
   -3.3685    0.9500   -3.7618 H   0  0  0  0  0  0  0  0  0  0  0  0
   -4.5007    1.3174   -2.4353 H   0  0  0  0  0  0  0  0  0  0  0  0
   -0.9069    0.1499   -2.4276 H   0  0  0  0  0  0  0  0  0  0  0  0
   -0.1609    1.7662   -2.0674 H   0  0  0  0  0  0  0  0  0  0  0  0
   -0.9583    1.4416   -3.6337 H   0  0  0  0  0  0  0  0  0  0  0  0
   -3.4630    3.6789   -2.0573 H   0  0  0  0  0  0  0  0  0  0  0  0
   -2.6498    3.2235   -3.5793 H   0  0  0  0  0  0  0  0  0  0  0  0
   -1.6819    3.8451   -2.2134 H   0  0  0  0  0  0  0  0  0  0  0  0
   -3.7211   -1.1504    2.1490 H   0  0  0  0  0  0  0  0  0  0  0  0
   -4.0242   -1.0048    4.6061 H   0  0  0  0  0  0  0  0  0  0  0  0
   -2.4111    0.3157    6.0053 H   0  0  0  0  0  0  0  0  0  0  0  0
   -0.4638    1.4614    4.8999 H   0  0  0  0  0  0  0  0  0  0  0  0
   -0.1366    1.2979    2.4531 H   0  0  0  0  0  0  0  0  0  0  0  0
  1  9  1  6  0  0  0
  1 16  1  0  0  0  0
  2  3  1  0  0  0  0
  3  8  1  0  0  0  0
  4  5  1  0  0  0  0
  4  3  2  0  0  0  0
  5  6  2  0  0  0  0
  6 24  1  0  0  0  0
  6  7  1  0  0  0  0
  7 25  1  0  0  0  0
  8  7  2  0  0  0  0
  8  1  1  0  0  0  0
  9 10  1  0  0  0  0
  9 11  1  0  0  0  0
 10 26  1  0  0  0  0
 11 30  1  0  0  0  0
 12  9  1  0  0  0  0
 13 34  1  0  0  0  0
 13 32  1  0  0  0  0
 13 12  1  0  0  0  0
 14 35  1  0  0  0  0
 14 36  1  0  0  0  0
 14 12  1  0  0  0  0
 15 40  1  0  0  0  0
 15 38  1  0  0  0  0
 15 12  1  0  0  0  0
 16 17  2  0  0  0  0
 16 21  1  0  0  0  0
 17 18  1  0  0  0  0
 18 42  1  0  0  0  0
 18 19  2  0  0  0  0
 19 43  1  0  0  0  0
 20 44  1  0  0  0  0
 20 19  1  0  0  0  0
 21 20  2  0  0  0  0
 22  4  1  0  0  0  0
 23  5  1  0  0  0  0
 27 10  1  0  0  0  0
 28 10  1  0  0  0  0
 29 11  1  0  0  0  0
 31 11  1  0  0  0  0
 33 13  1  0  0  0  0
 37 14  1  0  0  0  0
 39 15  1  0  0  0  0
 41 17  1  0  0  0  0
 45 21  1  0  0  0  0
M  CHG  1   2  -1
M  END
