1,20
 OpenBabel05122313063D

 51 52  0  0  0  0  0  0  0  0999 V2000
    0.0070   -1.1598    0.7704 P   0  0  1  0  0  0  0  0  0  0  0  0
   -0.2204   -1.5853    2.6182 C   0  0  0  0  0  0  0  0  0  0  0  0
   -1.1288   -0.5253    3.2612 C   0  0  0  0  0  0  0  0  0  0  0  0
   -1.1623   -0.6947    4.3580 H   0  0  0  0  0  0  0  0  0  0  0  0
   -2.1709   -0.5967    2.8855 H   0  0  0  0  0  0  0  0  0  0  0  0
   -0.7571    0.5006    3.0716 H   0  0  0  0  0  0  0  0  0  0  0  0
    1.1830   -1.5200    3.2458 C   0  0  0  0  0  0  0  0  0  0  0  0
    1.1190   -1.7945    4.3199 H   0  0  0  0  0  0  0  0  0  0  0  0
    1.6063   -0.4982    3.1697 H   0  0  0  0  0  0  0  0  0  0  0  0
    1.8915   -2.2222    2.7617 H   0  0  0  0  0  0  0  0  0  0  0  0
   -0.8297   -2.9846    2.7851 C   0  0  0  0  0  0  0  0  0  0  0  0
   -1.0304   -3.1657    3.8625 H   0  0  0  0  0  0  0  0  0  0  0  0
   -0.1444   -3.7824    2.4384 H   0  0  0  0  0  0  0  0  0  0  0  0
   -1.7878   -3.0911    2.2381 H   0  0  0  0  0  0  0  0  0  0  0  0
    0.5479   -2.7208   -0.0254 C   0  0  0  0  0  0  0  0  0  0  0  0
   -0.2205   -3.5066    0.0768 H   0  0  0  0  0  0  0  0  0  0  0  0
    1.5091   -3.0299    0.4274 H   0  0  0  0  0  0  0  0  0  0  0  0
    0.7370   -2.5118   -1.0952 H   0  0  0  0  0  0  0  0  0  0  0  0
   -1.7536    1.9132    0.3920 P   0  0  2  0  0  4  0  0  0  0  0  0
   -0.4510    1.8741    1.2245 O   0  0  0  0  0  1  0  0  0  0  0  0
   -1.5768    2.7721   -1.2650 C   0  0  0  0  0  0  0  0  0  0  0  0
   -0.7570    4.0476   -0.9911 C   0  0  0  0  0  0  0  0  0  0  0  0
   -0.6312    4.5968   -1.9474 H   0  0  0  0  0  0  0  0  0  0  0  0
    0.2503    3.8107   -0.5906 H   0  0  0  0  0  0  0  0  0  0  0  0
   -1.2722    4.7287   -0.2830 H   0  0  0  0  0  0  0  0  0  0  0  0
   -2.9599    3.1171   -1.8442 C   0  0  0  0  0  0  0  0  0  0  0  0
   -2.8178    3.5845   -2.8409 H   0  0  0  0  0  0  0  0  0  0  0  0
   -3.5046    3.8469   -1.2130 H   0  0  0  0  0  0  0  0  0  0  0  0
   -3.5978    2.2207   -1.9686 H   0  0  0  0  0  0  0  0  0  0  0  0
   -0.8101    1.8387   -2.2191 C   0  0  0  0  0  0  0  0  0  0  0  0
   -0.6072    2.3798   -3.1661 H   0  0  0  0  0  0  0  0  0  0  0  0
   -1.3922    0.9275   -2.4671 H   0  0  0  0  0  0  0  0  0  0  0  0
    0.1684    1.5334   -1.7884 H   0  0  0  0  0  0  0  0  0  0  0  0
   -3.0606    2.7363    1.3527 C   0  0  0  0  0  0  0  0  0  0  0  0
   -3.0563    2.2894    2.3652 H   0  0  0  0  0  0  0  0  0  0  0  0
   -4.0452    2.5839    0.8750 H   0  0  0  0  0  0  0  0  0  0  0  0
   -2.8250    3.8143    1.4342 H   0  0  0  0  0  0  0  0  0  0  0  0
   -1.7542   -1.0245    0.1624 C   0  0  0  0  0  0  0  0  0  0  0  0
   -2.4654    0.2285    0.0384 C   0  0  0  0  0  0  0  0  0  0  0  0
   -3.7265    0.2738   -0.3722 N   0  0  0  0  0  0  0  0  0  0  0  0
   -4.3473   -0.8918   -0.7101 C   0  0  0  0  0  0  0  0  0  0  0  0
   -5.6958   -0.8830   -1.1633 C   0  0  0  0  0  0  0  0  0  0  0  0
   -6.2174    0.0832   -1.2242 H   0  0  0  0  0  0  0  0  0  0  0  0
   -6.3079   -2.0774   -1.5152 C   0  0  0  0  0  0  0  0  0  0  0  0
   -7.3501   -2.0764   -1.8682 H   0  0  0  0  0  0  0  0  0  0  0  0
   -5.6024   -3.3112   -1.4269 C   0  0  0  0  0  0  0  0  0  0  0  0
   -6.1111   -4.2442   -1.7125 H   0  0  0  0  0  0  0  0  0  0  0  0
   -4.2873   -3.3486   -0.9861 C   0  0  0  0  0  0  0  0  0  0  0  0
   -3.7208   -4.2878   -0.9073 H   0  0  0  0  0  0  0  0  0  0  0  0
   -3.6339   -2.1397   -0.6162 C   0  0  0  0  0  0  0  0  0  0  0  0
   -2.3483   -2.1659   -0.1660 N   0  0  0  0  0  0  0  0  0  0  0  0
  1 15  1  6  0  0  0
  1  2  1  0  0  0  0
  2 11  1  0  0  0  0
  2  7  1  0  0  0  0
  2  3  1  0  0  0  0
  3  4  1  0  0  0  0
  5  3  1  0  0  0  0
  6  3  1  0  0  0  0
  7  8  1  0  0  0  0
  9  7  1  0  0  0  0
 10  7  1  0  0  0  0
 11 12  1  0  0  0  0
 13 11  1  0  0  0  0
 14 11  1  0  0  0  0
 15 16  1  0  0  0  0
 15 17  1  0  0  0  0
 18 15  1  0  0  0  0
 19 20  1  1  0  0  0
 19 34  1  0  0  0  0
 21 22  1  0  0  0  0
 21 19  1  0  0  0  0
 22 24  1  0  0  0  0
 22 25  1  0  0  0  0
 23 22  1  0  0  0  0
 26 21  1  0  0  0  0
 26 28  1  0  0  0  0
 27 26  1  0  0  0  0
 29 26  1  0  0  0  0
 30 33  1  0  0  0  0
 30 21  1  0  0  0  0
 31 30  1  0  0  0  0
 32 30  1  0  0  0  0
 34 37  1  0  0  0  0
 34 35  1  0  0  0  0
 36 34  1  0  0  0  0
 38  1  1  0  0  0  0
 39 38  1  0  0  0  0
 39 19  1  0  0  0  0
 40 39  2  0  0  0  0
 41 50  1  0  0  0  0
 41 40  1  0  0  0  0
 42 41  2  0  0  0  0
 43 42  1  0  0  0  0
 44 46  2  0  0  0  0
 44 42  1  0  0  0  0
 45 44  1  0  0  0  0
 46 48  1  0  0  0  0
 47 46  1  0  0  0  0
 48 49  1  0  0  0  0
 48 50  2  0  0  0  0
 50 51  1  0  0  0  0
 51 38  2  0  0  0  0
M  END
