1,5
 OpenBabel05122313063D

 62 63  0  0  1  0  0  0  0  0999 V2000
    1.7236    0.3565    0.6496 P   0  0  1  0  0  0  0  0  0  0  0  0
   -2.9769   -0.0963    0.5411 P   0  0  1  0  0  0  0  0  0  0  0  0
    0.0335    0.7668    0.2409 N   0  0  0  0  0  0  0  0  0  0  0  0
   -1.9197   -0.0477   -0.8860 N   0  0  0  0  0  0  0  0  0  0  0  0
    0.1400   -0.9520   -1.2877 O   0  0  0  0  0  1  0  0  0  0  0  0
   -0.5425   -0.1143   -0.6542 C   0  0  1  0  0  3  0  0  0  0  0  0
   -0.6469    1.9593    0.7424 C   0  0  0  0  0  0  0  0  0  0  0  0
   -2.3326   -0.5924   -2.1886 C   0  0  0  0  0  0  0  0  0  0  0  0
    2.6025    1.9385    0.3076 C   0  0  0  0  0  0  0  0  0  0  0  0
    3.8631    2.1983    0.8879 C   0  0  0  0  0  0  0  0  0  0  0  0
    4.6100    3.3195    0.4986 C   0  0  0  0  0  0  0  0  0  0  0  0
    4.1164    4.1945   -0.4810 C   0  0  0  0  0  0  0  0  0  0  0  0
    2.8776    3.9292   -1.0838 C   0  0  0  0  0  0  0  0  0  0  0  0
    2.1310    2.8065   -0.7004 C   0  0  0  0  0  0  0  0  0  0  0  0
   -4.4047    0.8810   -0.0932 C   0  0  0  0  0  0  0  0  0  0  0  0
   -5.6709    0.7946    0.5305 C   0  0  0  0  0  0  0  0  0  0  0  0
   -6.7265    1.6284    0.1345 C   0  0  0  0  0  0  0  0  0  0  0  0
   -6.5382    2.5782   -0.8817 C   0  0  0  0  0  0  0  0  0  0  0  0
   -5.2806    2.6906   -1.4935 C   0  0  0  0  0  0  0  0  0  0  0  0
   -4.2245    1.8543   -1.1027 C   0  0  0  0  0  0  0  0  0  0  0  0
   -3.5515   -1.9258    0.6569 C   0  0  0  0  0  0  0  0  0  0  0  0
   -2.2577   -2.7585    0.5772 C   0  0  0  0  0  0  0  0  0  0  0  0
   -4.5758   -2.3856   -0.3880 C   0  0  0  0  0  0  0  0  0  0  0  0
   -4.1379   -2.0804    2.0767 C   0  0  0  0  0  0  0  0  0  0  0  0
    1.6774    0.1469    2.5521 C   0  0  0  0  0  0  0  0  0  0  0  0
    0.4374   -0.7057    2.8791 C   0  0  0  0  0  0  0  0  0  0  0  0
    2.9401   -0.6401    2.9567 C   0  0  0  0  0  0  0  0  0  0  0  0
    1.6119    1.4807    3.3133 C   0  0  0  0  0  0  0  0  0  0  0  0
   -1.3716    2.3237   -0.0112 H   0  0  0  0  0  0  0  0  0  0  0  0
   -1.2018    1.7649    1.6821 H   0  0  0  0  0  0  0  0  0  0  0  0
    0.1022    2.7547    0.9168 H   0  0  0  0  0  0  0  0  0  0  0  0
   -1.7428   -0.1109   -2.9929 H   0  0  0  0  0  0  0  0  0  0  0  0
   -2.1645   -1.6856   -2.2629 H   0  0  0  0  0  0  0  0  0  0  0  0
   -3.4028   -0.3692   -2.3454 H   0  0  0  0  0  0  0  0  0  0  0  0
    4.2856    1.5110    1.6339 H   0  0  0  0  0  0  0  0  0  0  0  0
    5.5916    3.5029    0.9609 H   0  0  0  0  0  0  0  0  0  0  0  0
    4.7047    5.0727   -0.7865 H   0  0  0  0  0  0  0  0  0  0  0  0
    2.4920    4.5938   -1.8716 H   0  0  0  0  0  0  0  0  0  0  0  0
    1.1822    2.5881   -1.2120 H   0  0  0  0  0  0  0  0  0  0  0  0
   -5.8408    0.0750    1.3441 H   0  0  0  0  0  0  0  0  0  0  0  0
   -7.7049    1.5358    0.6301 H   0  0  0  0  0  0  0  0  0  0  0  0
   -7.3672    3.2323   -1.1908 H   0  0  0  0  0  0  0  0  0  0  0  0
   -5.1165    3.4361   -2.2866 H   0  0  0  0  0  0  0  0  0  0  0  0
   -3.2429    1.9545   -1.5894 H   0  0  0  0  0  0  0  0  0  0  0  0
   -2.4916   -3.8227    0.7897 H   0  0  0  0  0  0  0  0  0  0  0  0
   -1.7702   -2.7137   -0.4153 H   0  0  0  0  0  0  0  0  0  0  0  0
   -1.5124   -2.4293    1.3290 H   0  0  0  0  0  0  0  0  0  0  0  0
   -4.9034   -3.4213   -0.1529 H   0  0  0  0  0  0  0  0  0  0  0  0
   -5.4787   -1.7436   -0.3974 H   0  0  0  0  0  0  0  0  0  0  0  0
   -4.1556   -2.3989   -1.4099 H   0  0  0  0  0  0  0  0  0  0  0  0
   -4.3284   -3.1559    2.2780 H   0  0  0  0  0  0  0  0  0  0  0  0
   -3.4373   -1.7079    2.8514 H   0  0  0  0  0  0  0  0  0  0  0  0
   -5.1031   -1.5515    2.2033 H   0  0  0  0  0  0  0  0  0  0  0  0
    0.4220   -0.9064    3.9710 H   0  0  0  0  0  0  0  0  0  0  0  0
   -0.5124   -0.2003    2.6139 H   0  0  0  0  0  0  0  0  0  0  0  0
    0.4651   -1.6856    2.3667 H   0  0  0  0  0  0  0  0  0  0  0  0
    2.9181   -0.8160    4.0529 H   0  0  0  0  0  0  0  0  0  0  0  0
    2.9881   -1.6236    2.4531 H   0  0  0  0  0  0  0  0  0  0  0  0
    3.8806   -0.1037    2.7262 H   0  0  0  0  0  0  0  0  0  0  0  0
    1.6091    1.2720    4.4043 H   0  0  0  0  0  0  0  0  0  0  0  0
    2.4779    2.1349    3.0995 H   0  0  0  0  0  0  0  0  0  0  0  0
    0.6910    2.0497    3.0860 H   0  0  0  0  0  0  0  0  0  0  0  0
  1  3  1  1  0  0  0
  1 25  1  0  0  0  0
  2  4  1  6  0  0  0
  2 21  1  0  0  0  0
  3  7  1  0  0  0  0
  4  6  1  0  0  0  0
  6  5  1  6  0  0  0
  6  3  1  0  0  0  0
  7 31  1  0  0  0  0
  7 30  1  0  0  0  0
  8  4  1  0  0  0  0
  9  1  1  0  0  0  0
  9 10  1  0  0  0  0
 10 35  1  0  0  0  0
 11 10  2  0  0  0  0
 11 36  1  0  0  0  0
 12 11  1  0  0  0  0
 13 14  1  0  0  0  0
 13 12  2  0  0  0  0
 14  9  2  0  0  0  0
 15 16  1  0  0  0  0
 15  2  1  0  0  0  0
 16 40  1  0  0  0  0
 17 16  2  0  0  0  0
 17 41  1  0  0  0  0
 18 17  1  0  0  0  0
 19 20  1  0  0  0  0
 19 18  2  0  0  0  0
 20 15  2  0  0  0  0
 21 24  1  0  0  0  0
 22 21  1  0  0  0  0
 22 45  1  0  0  0  0
 22 47  1  0  0  0  0
 23 48  1  0  0  0  0
 23 21  1  0  0  0  0
 24 53  1  0  0  0  0
 24 51  1  0  0  0  0
 24 52  1  0  0  0  0
 25 26  1  0  0  0  0
 25 27  1  0  0  0  0
 25 28  1  0  0  0  0
 26 54  1  0  0  0  0
 27 57  1  0  0  0  0
 28 60  1  0  0  0  0
 29  7  1  0  0  0  0
 32  8  1  0  0  0  0
 33  8  1  0  0  0  0
 34  8  1  0  0  0  0
 37 12  1  0  0  0  0
 38 13  1  0  0  0  0
 39 14  1  0  0  0  0
 42 18  1  0  0  0  0
 43 19  1  0  0  0  0
 44 20  1  0  0  0  0
 46 22  1  0  0  0  0
 49 23  1  0  0  0  0
 50 23  1  0  0  0  0
 55 26  1  0  0  0  0
 56 26  1  0  0  0  0
 58 27  1  0  0  0  0
 59 27  1  0  0  0  0
 61 28  1  0  0  0  0
 62 28  1  0  0  0  0
M  END
