1,2
 OpenBabel05122313063D

 48 50  0  0  1  0  0  0  0  0999 V2000
    0.3614   -0.0695   -0.2276 P   0  0  0  0  0  0  0  0  0  0  0  0
   -2.5666    0.0423    0.2219 O   0  0  0  0  0  1  0  0  0  0  0  0
    1.8288    2.6055   -0.1929 O   0  0  0  0  0  0  0  0  0  0  0  0
   -3.4178    1.7148    1.4373 O   0  0  0  0  0  0  0  0  0  0  0  0
    1.6072   -1.9912    1.5215 O   0  0  0  0  0  0  0  0  0  0  0  0
    0.2192    1.3554   -1.3868 C   0  0  0  0  0  0  0  0  0  0  0  0
    0.9422    2.5691   -1.2208 C   0  0  0  0  0  0  0  0  0  0  0  0
    2.5406    3.7997    0.0700 C   0  0  0  0  0  0  0  0  0  0  0  0
    3.2108    4.0750   -0.7743 H   0  0  0  0  0  0  0  0  0  0  0  0
    1.8550    4.6500    0.2799 H   0  0  0  0  0  0  0  0  0  0  0  0
    3.1539    3.6008    0.9682 H   0  0  0  0  0  0  0  0  0  0  0  0
    0.7250    3.6427   -2.1076 C   0  0  0  0  0  0  0  0  0  0  0  0
    1.2761    4.5851   -1.9888 H   0  0  0  0  0  0  0  0  0  0  0  0
   -0.2001    3.5072   -3.1554 C   0  0  0  0  0  0  0  0  0  0  0  0
   -0.3582    4.3541   -3.8408 H   0  0  0  0  0  0  0  0  0  0  0  0
   -0.9137    2.3144   -3.3335 C   0  0  0  0  0  0  0  0  0  0  0  0
   -1.6356    2.2107   -4.1563 H   0  0  0  0  0  0  0  0  0  0  0  0
   -0.7008    1.2481   -2.4463 C   0  0  0  0  0  0  0  0  0  0  0  0
   -1.2562    0.3004   -2.5514 H   0  0  0  0  0  0  0  0  0  0  0  0
    0.1208    0.7424    1.4288 C   0  0  0  0  0  0  0  0  0  0  0  0
   -1.1650    1.1496    1.8803 C   0  0  0  0  0  0  0  0  0  0  0  0
   -2.4059    0.9005    1.0913 C   0  0  1  0  0  3  0  0  0  0  0  0
   -4.6625    1.4794    0.7558 C   0  0  0  0  0  0  0  0  0  0  0  0
   -4.5425    1.6432   -0.3332 H   0  0  0  0  0  0  0  0  0  0  0  0
   -5.0040    0.4376    0.9149 H   0  0  0  0  0  0  0  0  0  0  0  0
   -5.3787    2.2021    1.1836 H   0  0  0  0  0  0  0  0  0  0  0  0
   -1.2940    1.7978    3.1300 C   0  0  0  0  0  0  0  0  0  0  0  0
   -2.2940    2.1133    3.4561 H   0  0  0  0  0  0  0  0  0  0  0  0
   -0.1797    2.0183    3.9447 C   0  0  0  0  0  0  0  0  0  0  0  0
   -0.3009    2.5099    4.9214 H   0  0  0  0  0  0  0  0  0  0  0  0
    1.0882    1.6075    3.5049 C   0  0  0  0  0  0  0  0  0  0  0  0
    1.9756    1.7775    4.1338 H   0  0  0  0  0  0  0  0  0  0  0  0
    1.2318    0.9880    2.2571 C   0  0  0  0  0  0  0  0  0  0  0  0
    2.2317    0.7022    1.9018 H   0  0  0  0  0  0  0  0  0  0  0  0
    2.1182   -0.5780   -0.2808 C   0  0  0  0  0  0  0  0  0  0  0  0
    2.5298   -1.6149    0.6007 C   0  0  0  0  0  0  0  0  0  0  0  0
    1.8405   -3.1384    2.3198 C   0  0  0  0  0  0  0  0  0  0  0  0
    2.0329   -4.0355    1.6919 H   0  0  0  0  0  0  0  0  0  0  0  0
    2.6949   -2.9874    3.0163 H   0  0  0  0  0  0  0  0  0  0  0  0
    0.9157   -3.2977    2.9031 H   0  0  0  0  0  0  0  0  0  0  0  0
    3.8178   -2.1720    0.4877 C   0  0  0  0  0  0  0  0  0  0  0  0
    4.1395   -2.9740    1.1655 H   0  0  0  0  0  0  0  0  0  0  0  0
    4.6921   -1.7001   -0.5041 C   0  0  0  0  0  0  0  0  0  0  0  0
    5.6968   -2.1418   -0.5876 H   0  0  0  0  0  0  0  0  0  0  0  0
    4.2940   -0.6853   -1.3860 C   0  0  0  0  0  0  0  0  0  0  0  0
    4.9788   -0.3272   -2.1684 H   0  0  0  0  0  0  0  0  0  0  0  0
    3.0085   -0.1333   -1.2724 C   0  0  0  0  0  0  0  0  0  0  0  0
    2.6808    0.6463   -1.9756 H   0  0  0  0  0  0  0  0  0  0  0  0
  1 20  1  0  0  0  0
  3  8  1  0  0  0  0
  5 37  1  0  0  0  0
  6  7  1  0  0  0  0
  6  1  1  0  0  0  0
  7  3  1  0  0  0  0
  8 10  1  0  0  0  0
  8 11  1  0  0  0  0
  9  8  1  0  0  0  0
 12 13  1  0  0  0  0
 12  7  2  0  0  0  0
 14 12  1  0  0  0  0
 15 14  1  0  0  0  0
 16 14  2  0  0  0  0
 16 18  1  0  0  0  0
 17 16  1  0  0  0  0
 18  6  2  0  0  0  0
 19 18  1  0  0  0  0
 20 21  2  0  0  0  0
 20 33  1  0  0  0  0
 21 27  1  0  0  0  0
 22  2  1  1  0  0  0
 22  4  1  0  0  0  0
 22 21  1  0  0  0  0
 23 25  1  0  0  0  0
 23 26  1  0  0  0  0
 23  4  1  0  0  0  0
 24 23  1  0  0  0  0
 27 28  1  0  0  0  0
 27 29  2  0  0  0  0
 29 30  1  0  0  0  0
 31 29  1  0  0  0  0
 31 32  1  0  0  0  0
 33 31  2  0  0  0  0
 34 33  1  0  0  0  0
 35  1  1  0  0  0  0
 35 36  1  0  0  0  0
 36  5  1  0  0  0  0
 37 40  1  0  0  0  0
 37 39  1  0  0  0  0
 38 37  1  0  0  0  0
 41 36  2  0  0  0  0
 41 42  1  0  0  0  0
 43 41  1  0  0  0  0
 44 43  1  0  0  0  0
 45 47  1  0  0  0  0
 45 43  2  0  0  0  0
 46 45  1  0  0  0  0
 47 35  2  0  0  0  0
 48 47  1  0  0  0  0
M  END
