1,3
 OpenBabel05122313063D

 59 61  0  0  0  0  0  0  0  0999 V2000
   -0.8958    0.1008   -0.2988 P   0  0  0  0  0  0  0  0  0  0  0  0
    2.2980   -0.5747    0.7269 P   0  0  0  0  0  4  0  0  0  0  0  0
    2.0092   -0.3520   -0.7523 O   0  0  0  0  0  1  0  0  0  0  0  0
   -1.9048    2.3517    1.2040 O   0  0  0  0  0  0  0  0  0  0  0  0
   -2.3561   -2.4493    0.5330 O   0  0  0  0  0  0  0  0  0  0  0  0
    3.2837    0.4701    1.4489 O   0  0  0  0  0  0  0  0  0  0  0  0
   -0.9382   -1.5466   -1.1285 C   0  0  0  0  0  0  0  0  0  0  0  0
    3.0562   -2.0017    0.9653 O   0  0  0  0  0  0  0  0  0  0  0  0
   -2.6411    0.6483   -0.2305 C   0  0  0  0  0  0  0  0  0  0  0  0
   -0.4632   -0.3439    1.4626 C   0  0  0  0  0  0  0  0  0  0  0  0
   -0.1934   -1.7093   -2.3112 C   0  0  0  0  0  0  0  0  0  0  0  0
    0.3356   -0.8317   -2.7149 H   0  0  0  0  0  0  0  0  0  0  0  0
   -3.6526    0.0478   -0.9987 C   0  0  0  0  0  0  0  0  0  0  0  0
   -3.4189   -0.8597   -1.5748 H   0  0  0  0  0  0  0  0  0  0  0  0
   -1.4706   -0.4045    2.4464 C   0  0  0  0  0  0  0  0  0  0  0  0
   -2.5130   -0.2200    2.1512 H   0  0  0  0  0  0  0  0  0  0  0  0
   -1.6147   -2.6726   -0.5825 C   0  0  0  0  0  0  0  0  0  0  0  0
    0.1577   -0.9777    4.1580 C   0  0  0  0  0  0  0  0  0  0  0  0
    0.4017   -1.2207    5.2029 H   0  0  0  0  0  0  0  0  0  0  0  0
   -0.0947   -2.9583   -2.9424 C   0  0  0  0  0  0  0  0  0  0  0  0
    0.4966   -3.0635   -3.8633 H   0  0  0  0  0  0  0  0  0  0  0  0
    0.8730   -0.6089    1.8520 C   0  0  0  0  0  0  0  0  0  0  0  0
   -1.5028   -3.9322   -1.2060 C   0  0  0  0  0  0  0  0  0  0  0  0
   -2.0140   -4.8092   -0.7873 H   0  0  0  0  0  0  0  0  0  0  0  0
    1.1706   -0.9365    3.1943 C   0  0  0  0  0  0  0  0  0  0  0  0
    2.2117   -1.1526    3.4764 H   0  0  0  0  0  0  0  0  0  0  0  0
   -2.9894   -3.5375    1.1781 C   0  0  0  0  0  0  0  0  0  0  0  0
   -2.2571   -4.3149    1.4892 H   0  0  0  0  0  0  0  0  0  0  0  0
   -3.4756   -3.1202    2.0792 H   0  0  0  0  0  0  0  0  0  0  0  0
   -3.7632   -4.0073    0.5314 H   0  0  0  0  0  0  0  0  0  0  0  0
   -4.9409    0.6019   -1.0527 C   0  0  0  0  0  0  0  0  0  0  0  0
   -5.7216    0.1203   -1.6593 H   0  0  0  0  0  0  0  0  0  0  0  0
   -2.9352    1.8406    0.4859 C   0  0  0  0  0  0  0  0  0  0  0  0
   -0.7424   -4.0660   -2.3789 C   0  0  0  0  0  0  0  0  0  0  0  0
   -0.6652   -5.0551   -2.8563 H   0  0  0  0  0  0  0  0  0  0  0  0
   -2.0280    3.6355    1.7894 C   0  0  0  0  0  0  0  0  0  0  0  0
   -2.7963    3.6486    2.5940 H   0  0  0  0  0  0  0  0  0  0  0  0
   -1.0396    3.8688    2.2248 H   0  0  0  0  0  0  0  0  0  0  0  0
   -2.2807    4.4035    1.0265 H   0  0  0  0  0  0  0  0  0  0  0  0
   -5.2200    1.7759   -0.3382 C   0  0  0  0  0  0  0  0  0  0  0  0
   -6.2258    2.2211   -0.3787 H   0  0  0  0  0  0  0  0  0  0  0  0
   -4.2254    2.4019    0.4296 C   0  0  0  0  0  0  0  0  0  0  0  0
   -4.4559    3.3249    0.9780 H   0  0  0  0  0  0  0  0  0  0  0  0
   -1.1669   -0.7078    3.7788 C   0  0  0  0  0  0  0  0  0  0  0  0
   -1.9739   -0.7391    4.5272 H   0  0  0  0  0  0  0  0  0  0  0  0
    2.5025   -3.1702    0.3039 C   0  0  0  0  0  0  0  0  0  0  0  0
    2.6786   -4.0125    1.0036 H   0  0  0  0  0  0  0  0  0  0  0  0
    1.4013   -3.0560    0.1855 H   0  0  0  0  0  0  0  0  0  0  0  0
    3.1642   -3.4071   -1.0408 C   0  0  0  0  0  0  0  0  0  0  0  0
    4.2603   -3.5214   -0.9252 H   0  0  0  0  0  0  0  0  0  0  0  0
    2.7593   -4.3297   -1.5040 H   0  0  0  0  0  0  0  0  0  0  0  0
    2.9619   -2.5571   -1.7203 H   0  0  0  0  0  0  0  0  0  0  0  0
    4.3961    1.0684    0.7067 C   0  0  0  0  0  0  0  0  0  0  0  0
    5.2970    0.4597    0.9320 H   0  0  0  0  0  0  0  0  0  0  0  0
    4.1699    1.0240   -0.3789 H   0  0  0  0  0  0  0  0  0  0  0  0
    4.5414    2.5083    1.1439 C   0  0  0  0  0  0  0  0  0  0  0  0
    4.6526    2.5888    2.2438 H   0  0  0  0  0  0  0  0  0  0  0  0
    5.4404    2.9464    0.6654 H   0  0  0  0  0  0  0  0  0  0  0  0
    3.6629    3.0903    0.8039 H   0  0  0  0  0  0  0  0  0  0  0  0
  1  9  1  0  0  0  0
  1 10  1  0  0  0  0
  2  8  1  0  0  0  0
  2  6  1  0  0  0  0
  2 22  1  0  0  0  0
  3  2  1  0  0  0  0
  4 36  1  0  0  0  0
  5 27  1  0  0  0  0
  7 17  1  0  0  0  0
  7  1  1  0  0  0  0
  9 33  1  0  0  0  0
 10 22  2  0  0  0  0
 10 15  1  0  0  0  0
 11  7  2  0  0  0  0
 12 11  1  0  0  0  0
 13  9  2  0  0  0  0
 14 13  1  0  0  0  0
 15 44  2  0  0  0  0
 16 15  1  0  0  0  0
 17  5  1  0  0  0  0
 18 19  1  0  0  0  0
 20 34  2  0  0  0  0
 20 11  1  0  0  0  0
 21 20  1  0  0  0  0
 22 25  1  0  0  0  0
 23 24  1  0  0  0  0
 23 17  2  0  0  0  0
 25 26  1  0  0  0  0
 25 18  2  0  0  0  0
 27 28  1  0  0  0  0
 27 29  1  0  0  0  0
 30 27  1  0  0  0  0
 31 13  1  0  0  0  0
 31 40  2  0  0  0  0
 32 31  1  0  0  0  0
 33  4  1  0  0  0  0
 34 23  1  0  0  0  0
 35 34  1  0  0  0  0
 36 38  1  0  0  0  0
 36 37  1  0  0  0  0
 39 36  1  0  0  0  0
 40 42  1  0  0  0  0
 41 40  1  0  0  0  0
 42 33  2  0  0  0  0
 42 43  1  0  0  0  0
 44 18  1  0  0  0  0
 44 45  1  0  0  0  0
 46  8  1  0  0  0  0
 46 47  1  0  0  0  0
 48 46  1  0  0  0  0
 49 50  1  0  0  0  0
 49 46  1  0  0  0  0
 51 49  1  0  0  0  0
 52 49  1  0  0  0  0
 53 54  1  0  0  0  0
 53 56  1  0  0  0  0
 53  6  1  0  0  0  0
 55 53  1  0  0  0  0
 56 57  1  0  0  0  0
 58 56  1  0  0  0  0
 59 56  1  0  0  0  0
M  END
