1,4
 OpenBabel05122313063D

 43 46  0  0  0  0  0  0  0  0999 V2000
   -0.6774    1.0236    0.0236 P   0  0  0  0  0  0  0  0  0  0  0  0
    1.4402   -1.5183    0.9966 S   0  0  0  0  0  0  0  0  0  0  0  0
    2.2876   -1.6247    2.2030 O   0  0  0  0  0  1  0  0  0  0  0  0
   -0.0321   -1.2497    1.3937 O   0  0  0  0  0  1  0  0  0  0  0  0
   -2.2391    4.2961   -2.8841 C   0  0  0  0  0  0  0  0  0  0  0  0
   -2.6151    5.0561   -3.5856 H   0  0  0  0  0  0  0  0  0  0  0  0
    1.5452   -2.6309   -0.0055 O   0  0  0  0  0  1  0  0  0  0  0  0
   -1.1885    2.1409   -2.4821 C   0  0  0  0  0  0  0  0  0  0  0  0
   -0.7420    1.2097   -2.8639 H   0  0  0  0  0  0  0  0  0  0  0  0
    1.7204    2.2507   -0.7602 C   0  0  0  0  0  0  0  0  0  0  0  0
    1.0580    3.0966   -0.9909 H   0  0  0  0  0  0  0  0  0  0  0  0
   -1.2807    2.3515   -1.0890 C   0  0  0  0  0  0  0  0  0  0  0  0
   -1.0065    1.6365    1.7159 C   0  0  0  0  0  0  0  0  0  0  0  0
    3.0734    2.3500   -1.0198 C   0  0  0  0  0  0  0  0  0  0  0  0
    3.4876    3.2777   -1.4439 H   0  0  0  0  0  0  0  0  0  0  0  0
   -1.8643    3.5371   -0.6015 C   0  0  0  0  0  0  0  0  0  0  0  0
   -1.9419    3.7048    0.4829 H   0  0  0  0  0  0  0  0  0  0  0  0
   -2.2840    1.4112    2.2679 C   0  0  0  0  0  0  0  0  0  0  0  0
   -3.0343    0.8472    1.6909 H   0  0  0  0  0  0  0  0  0  0  0  0
    3.4140    0.0484   -0.1842 C   0  0  0  0  0  0  0  0  0  0  0  0
    2.0083   -0.0082    0.1232 C   0  0  0  0  0  0  0  0  0  0  0  0
    3.9489    1.2585   -0.7639 C   0  0  0  0  0  0  0  0  0  0  0  0
   -2.3431    4.5040   -1.5005 C   0  0  0  0  0  0  0  0  0  0  0  0
   -2.7986    5.4280   -1.1134 H   0  0  0  0  0  0  0  0  0  0  0  0
   -1.6094    2.5752    4.2928 C   0  0  0  0  0  0  0  0  0  0  0  0
   -1.8430    2.9384    5.3051 H   0  0  0  0  0  0  0  0  0  0  0  0
    6.1793    0.2644   -0.8355 C   0  0  0  0  0  0  0  0  0  0  0  0
    7.2504    0.3345   -1.0784 H   0  0  0  0  0  0  0  0  0  0  0  0
    5.3380    1.3386   -1.0727 C   0  0  0  0  0  0  0  0  0  0  0  0
    5.7256    2.2724   -1.5086 H   0  0  0  0  0  0  0  0  0  0  0  0
    5.6551   -0.9330   -0.2817 C   0  0  0  0  0  0  0  0  0  0  0  0
    6.3232   -1.7888   -0.1031 H   0  0  0  0  0  0  0  0  0  0  0  0
   -2.5843    1.8867    3.5518 C   0  0  0  0  0  0  0  0  0  0  0  0
   -3.5811    1.7064    3.9816 H   0  0  0  0  0  0  0  0  0  0  0  0
    1.1614    1.0619   -0.1962 C   0  0  0  0  0  0  0  0  0  0  0  0
   -0.0282    2.3212    2.4607 C   0  0  0  0  0  0  0  0  0  0  0  0
    0.9761    2.4777    2.0395 H   0  0  0  0  0  0  0  0  0  0  0  0
    4.3110   -1.0430    0.0392 C   0  0  0  0  0  0  0  0  0  0  0  0
    3.9273   -1.9773    0.4654 H   0  0  0  0  0  0  0  0  0  0  0  0
   -1.6584    3.1133   -3.3735 C   0  0  0  0  0  0  0  0  0  0  0  0
   -1.5790    2.9441   -4.4580 H   0  0  0  0  0  0  0  0  0  0  0  0
   -0.3332    2.7876    3.7484 C   0  0  0  0  0  0  0  0  0  0  0  0
    0.4362    3.3144    4.3326 H   0  0  0  0  0  0  0  0  0  0  0  0
  1 13  1  0  0  0  0
  2  4  1  0  0  0  0
  2  3  1  0  0  0  0
  5 23  1  0  0  0  0
  6  5  1  0  0  0  0
  7  2  1  0  0  0  0
  8 12  2  0  0  0  0
  9  8  1  0  0  0  0
 10 35  1  0  0  0  0
 11 10  1  0  0  0  0
 12 16  1  0  0  0  0
 12  1  1  0  0  0  0
 13 18  2  0  0  0  0
 13 36  1  0  0  0  0
 14 22  1  0  0  0  0
 14 10  2  0  0  0  0
 15 14  1  0  0  0  0
 16 17  1  0  0  0  0
 18 33  1  0  0  0  0
 19 18  1  0  0  0  0
 20 38  1  0  0  0  0
 20 21  1  0  0  0  0
 21  2  1  0  0  0  0
 22 20  2  0  0  0  0
 23 24  1  0  0  0  0
 23 16  2  0  0  0  0
 25 26  1  0  0  0  0
 27 31  1  0  0  0  0
 28 27  1  0  0  0  0
 29 27  2  0  0  0  0
 29 22  1  0  0  0  0
 30 29  1  0  0  0  0
 31 32  1  0  0  0  0
 31 38  2  0  0  0  0
 33 34  1  0  0  0  0
 33 25  2  0  0  0  0
 35  1  1  0  0  0  0
 35 21  2  0  0  0  0
 36 42  2  0  0  0  0
 37 36  1  0  0  0  0
 38 39  1  0  0  0  0
 40  5  2  0  0  0  0
 40  8  1  0  0  0  0
 41 40  1  0  0  0  0
 42 25  1  0  0  0  0
 42 43  1  0  0  0  0
M  END
