1
 OpenBabel05122313063D

 24 25  0  0  0  0  0  0  0  0999 V2000
   -0.9854   -0.1181    0.6757 S   0  0  0  0  0  3  0  0  0  0  0  0
   -1.0462   -0.1568    2.1974 O   0  0  0  0  0  1  0  0  0  0  0  0
   -2.3844   -1.1618    0.1241 C   0  0  0  0  0  0  0  0  0  0  0  0
   -2.7946   -2.1587    1.0190 C   0  0  0  0  0  0  0  0  0  0  0  0
   -2.3136   -2.2182    2.0064 H   0  0  0  0  0  0  0  0  0  0  0  0
   -3.8199   -3.0362    0.6343 C   0  0  0  0  0  0  0  0  0  0  0  0
   -4.1521   -3.8231    1.3285 H   0  0  0  0  0  0  0  0  0  0  0  0
   -4.4227   -2.9085   -0.6274 C   0  0  0  0  0  0  0  0  0  0  0  0
   -5.2274   -3.5976   -0.9251 H   0  0  0  0  0  0  0  0  0  0  0  0
   -4.0065   -1.8958   -1.5076 C   0  0  0  0  0  0  0  0  0  0  0  0
   -4.4878   -1.7861   -2.4913 H   0  0  0  0  0  0  0  0  0  0  0  0
   -2.9794   -1.0141   -1.1377 C   0  0  0  0  0  0  0  0  0  0  0  0
   -2.6635   -0.2107   -1.8174 H   0  0  0  0  0  0  0  0  0  0  0  0
   -1.6698    1.5198    0.2204 C   0  0  0  0  0  0  0  0  0  0  0  0
   -2.4965    2.1531    1.1572 C   0  0  0  0  0  0  0  0  0  0  0  0
   -2.7102    1.6425    2.1082 H   0  0  0  0  0  0  0  0  0  0  0  0
   -2.9996    3.4278    0.8585 C   0  0  0  0  0  0  0  0  0  0  0  0
   -3.6468    3.9438    1.5841 H   0  0  0  0  0  0  0  0  0  0  0  0
   -2.6719    4.0493   -0.3592 C   0  0  0  0  0  0  0  0  0  0  0  0
   -3.0664    5.0512   -0.5868 H   0  0  0  0  0  0  0  0  0  0  0  0
   -1.8340    3.4010   -1.2817 C   0  0  0  0  0  0  0  0  0  0  0  0
   -1.5697    3.8931   -2.2301 H   0  0  0  0  0  0  0  0  0  0  0  0
   -1.3181    2.1273   -0.9911 C   0  0  0  0  0  0  0  0  0  0  0  0
   -0.6336    1.6087   -1.6778 H   0  0  0  0  0  0  0  0  0  0  0  0
  1  2  1  0  0  0  0
  3  1  1  0  0  0  0
  3  4  1  0  0  0  0
  4  5  1  0  0  0  0
  6  4  2  0  0  0  0
  6  7  1  0  0  0  0
  8  6  1  0  0  0  0
  9  8  1  0  0  0  0
 10 12  1  0  0  0  0
 10  8  2  0  0  0  0
 11 10  1  0  0  0  0
 12  3  2  0  0  0  0
 13 12  1  0  0  0  0
 14  1  1  0  0  0  0
 14 15  1  0  0  0  0
 15 16  1  0  0  0  0
 17 15  2  0  0  0  0
 17 18  1  0  0  0  0
 19 17  1  0  0  0  0
 20 19  1  0  0  0  0
 21 23  1  0  0  0  0
 21 19  2  0  0  0  0
 22 21  1  0  0  0  0
 23 14  2  0  0  0  0
 24 23  1  0  0  0  0
M  END
