2
 OpenBabel05122313063D

 22 22  0  0  0  0  0  0  0  0999 V2000
    6.9941    2.5062    0.9070 Cl  0  0  0  0  0  0  0  0  0  0  0  0
    2.2467    0.6521   -0.5905 S   0  0  0  0  0  1  0  0  0  0  0  0
    1.5731   -1.7163    0.3387 O   0  0  0  0  0  0  0  0  0  0  0  0
    3.8313   -1.5094    0.0521 N   0  0  0  0  0  0  0  0  0  0  0  0
    2.6615   -0.9814   -0.0167 C   0  0  0  0  0  0  0  0  0  0  0  0
    5.0351   -0.8562   -0.1909 C   0  0  0  0  0  0  0  0  0  0  0  0
    5.3557    0.3930    0.3956 C   0  0  0  0  0  0  0  0  0  0  0  0
    4.6232    0.9101    1.0291 H   0  0  0  0  0  0  0  0  0  0  0  0
    6.6126    0.9642    0.1645 C   0  0  0  0  0  0  0  0  0  0  0  0
    7.5748    0.3379   -0.6441 C   0  0  0  0  0  0  0  0  0  0  0  0
    8.5513    0.8134   -0.8076 H   0  0  0  0  0  0  0  0  0  0  0  0
    7.2520   -0.9014   -1.2199 C   0  0  0  0  0  0  0  0  0  0  0  0
    7.9942   -1.4103   -1.8541 H   0  0  0  0  0  0  0  0  0  0  0  0
    6.0077   -1.5002   -0.9933 C   0  0  0  0  0  0  0  0  0  0  0  0
    5.7565   -2.4766   -1.4315 H   0  0  0  0  0  0  0  0  0  0  0  0
    1.8019   -3.0554    0.8146 C   0  0  0  0  0  0  0  0  0  0  0  0
    2.4427   -3.0141    1.7216 H   0  0  0  0  0  0  0  0  0  0  0  0
    2.3775   -3.6183    0.0490 H   0  0  0  0  0  0  0  0  0  0  0  0
    0.4451   -3.6732    1.0947 C   0  0  0  0  0  0  0  0  0  0  0  0
    0.5686   -4.7087    1.4696 H   0  0  0  0  0  0  0  0  0  0  0  0
   -0.1726   -3.7097    0.1748 H   0  0  0  0  0  0  0  0  0  0  0  0
   -0.1129   -3.0909    1.8550 H   0  0  0  0  0  0  0  0  0  0  0  0
  2  5  1  0  0  0  0
  3 16  1  0  0  0  0
  5  4  2  0  0  0  0
  5  3  1  0  0  0  0
  6  4  1  0  0  0  0
  6  7  1  0  0  0  0
  7  8  1  0  0  0  0
  9  7  2  0  0  0  0
  9  1  1  0  0  0  0
 10  9  1  0  0  0  0
 11 10  1  0  0  0  0
 12 14  1  0  0  0  0
 12 10  2  0  0  0  0
 13 12  1  0  0  0  0
 14  6  2  0  0  0  0
 15 14  1  0  0  0  0
 16 19  1  0  0  0  0
 16 17  1  0  0  0  0
 18 16  1  0  0  0  0
 19 20  1  0  0  0  0
 19 22  1  0  0  0  0
 21 19  1  0  0  0  0
M  END
