1
 OpenBabel05122313063D

 14 14  0  0  0  0  0  0  0  0999 V2000
   -2.2097   -0.3559   -0.2363 S   0  0  0  0  0  3  0  0  0  0  0  0
   -2.9548    0.9401   -0.5167 O   0  0  0  0  0  1  0  0  0  0  0  0
   -3.1963   -1.3119    0.9968 C   0  0  0  0  0  0  0  0  0  0  0  0
   -2.4832   -2.0262    1.4552 H   0  0  0  0  0  0  0  0  0  0  0  0
   -3.5513   -0.5690    1.7356 H   0  0  0  0  0  0  0  0  0  0  0  0
   -4.2647   -2.0033    0.1570 C   0  0  0  0  0  0  0  0  0  0  0  0
   -5.0139   -1.2579   -0.1843 H   0  0  0  0  0  0  0  0  0  0  0  0
   -4.7989   -2.7746    0.7474 H   0  0  0  0  0  0  0  0  0  0  0  0
   -3.5127   -2.6105   -1.0406 C   0  0  0  0  0  0  0  0  0  0  0  0
   -2.8849   -3.4546   -0.6911 H   0  0  0  0  0  0  0  0  0  0  0  0
   -4.2073   -2.9931   -1.8153 H   0  0  0  0  0  0  0  0  0  0  0  0
   -2.5961   -1.5330   -1.6238 C   0  0  0  0  0  0  0  0  0  0  0  0
   -3.0927   -0.8567   -2.3470 H   0  0  0  0  0  0  0  0  0  0  0  0
   -1.6295   -1.8876   -2.0255 H   0  0  0  0  0  0  0  0  0  0  0  0
  1  3  1  0  0  0  0
  2  1  1  0  0  0  0
  3  4  1  0  0  0  0
  3  5  1  0  0  0  0
  6  8  1  0  0  0  0
  6  3  1  0  0  0  0
  7  6  1  0  0  0  0
  9 10  1  0  0  0  0
  9  6  1  0  0  0  0
 11  9  1  0  0  0  0
 12  9  1  0  0  0  0
 12  1  1  0  0  0  0
 13 12  1  0  0  0  0
 14 12  1  0  0  0  0
M  END
