1
 OpenBabel05122313063D

 55 58  0  0  1  0  0  0  0  0999 V2000
   -0.4587   -3.0775    0.5662 S   0  0  0  0  0  1  0  0  0  0  0  0
    5.9370   -1.0964   -1.5639 O   0  0  0  0  0  0  0  0  0  0  0  0
    5.4590   -1.6558   -2.2050 H   0  0  0  0  0  0  0  0  0  0  0  0
   -3.0550    5.3291   -0.1817 O   0  0  0  0  0  0  0  0  0  0  0  0
   -2.9071    5.9850    0.5246 H   0  0  0  0  0  0  0  0  0  0  0  0
    0.9019   -2.5966    1.7255 C   0  0  0  0  0  0  0  0  0  0  0  0
    1.3919   -1.6773    1.3450 H   0  0  0  0  0  0  0  0  0  0  0  0
    0.4508   -2.3626    2.7104 H   0  0  0  0  0  0  0  0  0  0  0  0
    1.9086   -3.7408    1.8443 C   0  0  0  0  0  0  0  0  0  0  0  0
    2.6227   -3.4966    2.6598 H   0  0  0  0  0  0  0  0  0  0  0  0
    1.3829   -4.6723    2.1445 H   0  0  0  0  0  0  0  0  0  0  0  0
    2.6966   -4.0139    0.5439 C   0  0  0  0  0  0  0  0  0  0  0  0
    1.9744   -4.2616   -0.2663 H   0  0  0  0  0  0  0  0  0  0  0  0
    3.3330   -4.9148    0.6814 H   0  0  0  0  0  0  0  0  0  0  0  0
    3.5239   -2.8832    0.1308 C   0  0  0  0  0  0  0  0  0  0  0  0
    4.1888   -1.8974   -0.1698 C   0  0  0  0  0  0  0  0  0  0  0  0
    4.9853   -0.7231   -0.5663 C   0  0  1  0  0  0  0  0  0  0  0  0
    5.7557   -0.1341    0.6580 C   0  0  0  0  0  0  0  0  0  0  0  0
    6.7074    0.2763    0.2681 H   0  0  0  0  0  0  0  0  0  0  0  0
    6.0164   -0.9348    1.3747 H   0  0  0  0  0  0  0  0  0  0  0  0
    3.5634    0.9222    0.4204 C   0  0  2  0  0  0  0  0  0  0  0  0
    2.9512    0.0739    0.8065 H   0  0  0  0  0  0  0  0  0  0  0  0
    4.8468    0.9645    1.2711 C   0  0  0  0  0  0  0  0  0  0  0  0
    4.6357    0.7843    2.3432 H   0  0  0  0  0  0  0  0  0  0  0  0
    5.3296    1.9620    1.2052 H   0  0  0  0  0  0  0  0  0  0  0  0
    4.0486    0.4805   -0.9801 C   0  0  2  0  0  0  0  0  0  0  0  0
    2.8346    0.1355   -1.8548 C   0  0  0  0  0  0  0  0  0  0  0  0
    3.1567   -0.1293   -2.8855 H   0  0  0  0  0  0  0  0  0  0  0  0
    2.3283   -0.7604   -1.4371 H   0  0  0  0  0  0  0  0  0  0  0  0
    1.8190    1.2902   -1.9007 C   0  0  0  0  0  0  0  0  0  0  0  0
    0.9337    0.9450   -2.4669 H   0  0  0  0  0  0  0  0  0  0  0  0
    2.2291    2.1652   -2.4505 H   0  0  0  0  0  0  0  0  0  0  0  0
    1.3986    1.7320   -0.4852 C   0  0  1  0  0  0  0  0  0  0  0  0
    0.9765    0.8232    0.0078 H   0  0  0  0  0  0  0  0  0  0  0  0
    2.6269    2.1277    0.3681 C   0  0  1  0  0  0  0  0  0  0  0  0
    3.1545    2.9709   -0.1370 H   0  0  0  0  0  0  0  0  0  0  0  0
    0.2820    2.7675   -0.4427 C   0  0  0  0  0  0  0  0  0  0  0  0
    0.2398    3.7706    0.5593 C   0  0  0  0  0  0  0  0  0  0  0  0
    1.3538    3.9111    1.5773 C   0  0  0  0  0  0  0  0  0  0  0  0
    2.0326    4.7329    1.2524 H   0  0  0  0  0  0  0  0  0  0  0  0
    0.9282    4.2409    2.5485 H   0  0  0  0  0  0  0  0  0  0  0  0
   -0.8135    2.6778   -1.3303 C   0  0  0  0  0  0  0  0  0  0  0  0
   -0.8174    1.8890   -2.0953 H   0  0  0  0  0  0  0  0  0  0  0  0
    2.1700    2.6284    1.7399 C   0  0  0  0  0  0  0  0  0  0  0  0
    1.5541    1.8397    2.2283 H   0  0  0  0  0  0  0  0  0  0  0  0
    3.0406    2.8150    2.4017 H   0  0  0  0  0  0  0  0  0  0  0  0
   -1.9172    3.5329   -1.2496 C   0  0  0  0  0  0  0  0  0  0  0  0
   -2.7655    3.4381   -1.9424 H   0  0  0  0  0  0  0  0  0  0  0  0
   -1.9510    4.5273   -0.2543 C   0  0  0  0  0  0  0  0  0  0  0  0
   -0.8685    4.6390    0.6342 C   0  0  0  0  0  0  0  0  0  0  0  0
   -0.8939    5.4080    1.4265 H   0  0  0  0  0  0  0  0  0  0  0  0
    4.9145    1.5407   -1.6839 C   0  0  0  0  0  0  0  0  0  0  0  0
    5.4001    1.0889   -2.5698 H   0  0  0  0  0  0  0  0  0  0  0  0
    5.7221    1.9364   -1.0385 H   0  0  0  0  0  0  0  0  0  0  0  0
    4.3070    2.4014   -2.0214 H   0  0  0  0  0  0  0  0  0  0  0  0
  1  6  1  0  0  0  0
  2 17  1  0  0  0  0
  3  2  1  0  0  0  0
  4  5  1  0  0  0  0
  6  9  1  0  0  0  0
  6  8  1  0  0  0  0
  7  6  1  0  0  0  0
  9 11  1  0  0  0  0
  9 10  1  0  0  0  0
 12 14  1  0  0  0  0
 12  9  1  0  0  0  0
 13 12  1  0  0  0  0
 15 12  1  0  0  0  0
 16 15  3  0  0  0  0
 17 16  1  1  0  0  0
 17 18  1  0  0  0  0
 18 23  1  0  0  0  0
 18 20  1  0  0  0  0
 19 18  1  0  0  0  0
 21 22  1  1  0  0  0
 21 23  1  0  0  0  0
 23 24  1  0  0  0  0
 25 23  1  0  0  0  0
 26 52  1  6  0  0  0
 26 17  1  0  0  0  0
 26 21  1  0  0  0  0
 27 29  1  0  0  0  0
 27 26  1  0  0  0  0
 28 27  1  0  0  0  0
 30 27  1  0  0  0  0
 30 33  1  0  0  0  0
 31 30  1  0  0  0  0
 32 30  1  0  0  0  0
 33 37  1  0  0  0  0
 33 34  1  1  0  0  0
 33 35  1  0  0  0  0
 35 36  1  6  0  0  0
 35 21  1  0  0  0  0
 35 44  1  0  0  0  0
 37 38  1  0  0  0  0
 38 50  2  0  0  0  0
 38 39  1  0  0  0  0
 39 44  1  0  0  0  0
 39 41  1  0  0  0  0
 40 39  1  0  0  0  0
 42 47  1  0  0  0  0
 42 37  2  0  0  0  0
 43 42  1  0  0  0  0
 44 45  1  0  0  0  0
 44 46  1  0  0  0  0
 47 49  2  0  0  0  0
 48 47  1  0  0  0  0
 49  4  1  0  0  0  0
 49 50  1  0  0  0  0
 50 51  1  0  0  0  0
 52 54  1  0  0  0  0
 53 52  1  0  0  0  0
 55 52  1  0  0  0  0
M  END
