1
 OpenBabel05122313063D

 28 30  0  0  0  0  0  0  0  0999 V2000
    1.0719   -2.2578   -0.1666 S   0  0  0  0  0  1  0  0  0  0  0  0
   -0.3793   -1.3618   -0.1514 C   0  0  0  0  0  0  0  0  0  0  0  0
   -1.6269   -1.9401   -0.0761 N   0  0  0  0  0  0  0  0  0  0  0  0
   -2.4701   -0.9347   -0.0518 N   0  0  0  0  0  0  0  0  0  0  0  0
   -1.7910    0.2464   -0.1392 N   0  0  0  0  0  0  0  0  0  0  0  0
   -0.4972    0.0148   -0.1976 N   0  0  0  0  0  2  0  0  0  0  0  0
   -3.8793   -1.0916    0.1424 C   0  0  0  0  0  0  0  0  0  0  0  0
   -4.5378   -0.3541    1.1406 C   0  0  0  0  0  0  0  0  0  0  0  0
   -3.9802    0.3481    1.7757 H   0  0  0  0  0  0  0  0  0  0  0  0
   -5.9149   -0.5427    1.3126 C   0  0  0  0  0  0  0  0  0  0  0  0
   -6.4445    0.0255    2.0911 H   0  0  0  0  0  0  0  0  0  0  0  0
   -6.6111   -1.4626    0.5109 C   0  0  0  0  0  0  0  0  0  0  0  0
   -7.6917   -1.6074    0.6559 H   0  0  0  0  0  0  0  0  0  0  0  0
   -5.9295   -2.2073   -0.4659 C   0  0  0  0  0  0  0  0  0  0  0  0
   -6.4717   -2.9369   -1.0850 H   0  0  0  0  0  0  0  0  0  0  0  0
   -4.5537   -2.0267   -0.6588 C   0  0  0  0  0  0  0  0  0  0  0  0
   -3.9936   -2.6019   -1.4089 H   0  0  0  0  0  0  0  0  0  0  0  0
   -2.3515    1.5580   -0.2019 C   0  0  0  0  0  0  0  0  0  0  0  0
   -1.6698    2.5818    0.4801 C   0  0  0  0  0  0  0  0  0  0  0  0
   -0.7507    2.3446    1.0339 H   0  0  0  0  0  0  0  0  0  0  0  0
   -2.1768    3.8851    0.4129 C   0  0  0  0  0  0  0  0  0  0  0  0
   -1.6515    4.6949    0.9399 H   0  0  0  0  0  0  0  0  0  0  0  0
   -3.3412    4.1571   -0.3244 C   0  0  0  0  0  0  0  0  0  0  0  0
   -3.7336    5.1835   -0.3728 H   0  0  0  0  0  0  0  0  0  0  0  0
   -3.9958    3.1241   -1.0162 C   0  0  0  0  0  0  0  0  0  0  0  0
   -4.8924    3.3404   -1.6153 H   0  0  0  0  0  0  0  0  0  0  0  0
   -3.5017    1.8148   -0.9698 C   0  0  0  0  0  0  0  0  0  0  0  0
   -3.9929    1.0110   -1.5343 H   0  0  0  0  0  0  0  0  0  0  0  0
  1  2  1  0  0  0  0
  2  3  2  0  0  0  0
  3  4  1  0  0  0  0
  4  7  1  0  0  0  0
  5  4  1  0  0  0  0
  6  2  1  0  0  0  0
  6  5  1  0  0  0  0
  7  8  1  0  0  0  0
  8 10  2  0  0  0  0
  8  9  1  0  0  0  0
 10 11  1  0  0  0  0
 12 13  1  0  0  0  0
 12 10  1  0  0  0  0
 14 12  2  0  0  0  0
 15 14  1  0  0  0  0
 16 14  1  0  0  0  0
 16  7  2  0  0  0  0
 17 16  1  0  0  0  0
 18  5  1  0  0  0  0
 18 19  1  0  0  0  0
 19 20  1  0  0  0  0
 21 19  2  0  0  0  0
 21 22  1  0  0  0  0
 23 21  1  0  0  0  0
 24 23  1  0  0  0  0
 25 27  1  0  0  0  0
 25 23  2  0  0  0  0
 26 25  1  0  0  0  0
 27 18  2  0  0  0  0
 28 27  1  0  0  0  0
M  END
