1
 OpenBabel05122313063D

 16 16  0  0  0  0  0  0  0  0999 V2000
   -2.7211   -1.4818   -0.2001 S   0  0  0  0  0  1  0  0  0  0  0  0
   -2.7007    1.5674    0.0933 S   0  0  0  0  0  0  0  0  0  0  0  0
   -4.8752    0.0366    0.0084 N   0  0  0  0  0  0  0  0  0  0  0  0
   -3.5204    0.0845   -0.0221 C   0  0  0  0  0  0  0  0  0  0  0  0
   -5.7131    1.2386    0.1049 C   0  0  0  0  0  0  0  0  0  0  0  0
   -5.3416    2.0116   -0.5979 H   0  0  0  0  0  0  0  0  0  0  0  0
   -5.6260    1.6764    1.1253 H   0  0  0  0  0  0  0  0  0  0  0  0
   -7.1235    0.7195   -0.1977 C   0  0  0  0  0  0  0  0  0  0  0  0
   -7.9132    1.3407    0.2677 H   0  0  0  0  0  0  0  0  0  0  0  0
   -7.2998    0.7182   -1.2941 H   0  0  0  0  0  0  0  0  0  0  0  0
   -7.0850   -0.7221    0.3309 C   0  0  0  0  0  0  0  0  0  0  0  0
   -7.8794   -1.3714   -0.0859 H   0  0  0  0  0  0  0  0  0  0  0  0
   -7.1926   -0.7258    1.4362 H   0  0  0  0  0  0  0  0  0  0  0  0
   -5.6781   -1.1921   -0.0567 C   0  0  0  0  0  0  0  0  0  0  0  0
   -5.2571   -1.9618    0.6219 H   0  0  0  0  0  0  0  0  0  0  0  0
   -5.6461   -1.6163   -1.0865 H   0  0  0  0  0  0  0  0  0  0  0  0
  1  4  1  0  0  0  0
  3  5  1  0  0  0  0
  4  3  1  0  0  0  0
  4  2  2  0  0  0  0
  5  7  1  0  0  0  0
  6  5  1  0  0  0  0
  8  5  1  0  0  0  0
  8  9  1  0  0  0  0
  8 11  1  0  0  0  0
 10  8  1  0  0  0  0
 11 13  1  0  0  0  0
 12 11  1  0  0  0  0
 14  3  1  0  0  0  0
 14 11  1  0  0  0  0
 14 15  1  0  0  0  0
 16 14  1  0  0  0  0
M  END
