1
 OpenBabel05122313063D

 28 28  0  0  0  0  0  0  0  0999 V2000
    2.2527   -1.1974    0.0356 S   0  0  0  0  0  1  0  0  0  0  0  0
    1.6390    1.3639    0.0606 O   0  0  0  0  0  0  0  0  0  0  0  0
    3.9026    1.0107   -0.0564 N   0  0  0  0  0  0  0  0  0  0  0  0
    2.7170    0.5260    0.0223 C   0  0  0  0  0  0  0  0  0  0  0  0
    5.0915    0.2831   -0.0486 C   0  0  0  0  0  0  0  0  0  0  0  0
    6.1114    0.6447   -0.9605 C   0  0  0  0  0  0  0  0  0  0  0  0
    5.9098    1.4632   -1.6675 H   0  0  0  0  0  0  0  0  0  0  0  0
    7.3413   -0.0207   -0.9643 C   0  0  0  0  0  0  0  0  0  0  0  0
    8.1130    0.2780   -1.6926 H   0  0  0  0  0  0  0  0  0  0  0  0
    7.6194   -1.0586   -0.0497 C   0  0  0  0  0  0  0  0  0  0  0  0
    6.6100   -1.3972    0.8736 C   0  0  0  0  0  0  0  0  0  0  0  0
    6.8012   -2.1931    1.6119 H   0  0  0  0  0  0  0  0  0  0  0  0
    5.3685   -0.7492    0.8791 C   0  0  0  0  0  0  0  0  0  0  0  0
    4.6011   -1.0319    1.6139 H   0  0  0  0  0  0  0  0  0  0  0  0
    8.9392   -1.7889   -0.0765 C   0  0  0  0  0  0  0  0  0  0  0  0
    9.7837   -1.1024   -0.2903 H   0  0  0  0  0  0  0  0  0  0  0  0
    8.9535   -2.5717   -0.8664 H   0  0  0  0  0  0  0  0  0  0  0  0
    9.1457   -2.2948    0.8874 H   0  0  0  0  0  0  0  0  0  0  0  0
    1.8650    2.7975   -0.0302 C   0  0  0  0  0  0  0  0  0  0  0  0
    2.7323    2.9482   -0.7071 H   0  0  0  0  0  0  0  0  0  0  0  0
    2.2061    3.3547    1.3471 C   0  0  0  0  0  0  0  0  0  0  0  0
    1.3778    3.1688    2.0624 H   0  0  0  0  0  0  0  0  0  0  0  0
    2.3748    4.4493    1.2904 H   0  0  0  0  0  0  0  0  0  0  0  0
    3.1290    2.8813    1.7322 H   0  0  0  0  0  0  0  0  0  0  0  0
    0.5930    3.3806   -0.6322 C   0  0  0  0  0  0  0  0  0  0  0  0
    0.3747    2.9255   -1.6181 H   0  0  0  0  0  0  0  0  0  0  0  0
    0.6998    4.4756   -0.7658 H   0  0  0  0  0  0  0  0  0  0  0  0
   -0.2810    3.1982    0.0265 H   0  0  0  0  0  0  0  0  0  0  0  0
  3  5  1  0  0  0  0
  3  4  2  0  0  0  0
  4  1  1  0  0  0  0
  4  2  1  0  0  0  0
  5 13  1  0  0  0  0
  6  5  2  0  0  0  0
  7  6  1  0  0  0  0
  8  6  1  0  0  0  0
  8 10  2  0  0  0  0
  9  8  1  0  0  0  0
 10 11  1  0  0  0  0
 11 13  2  0  0  0  0
 11 12  1  0  0  0  0
 13 14  1  0  0  0  0
 15 10  1  0  0  0  0
 15 18  1  0  0  0  0
 16 15  1  0  0  0  0
 17 15  1  0  0  0  0
 19  2  1  0  0  0  0
 19 21  1  0  0  0  0
 20 19  1  0  0  0  0
 21 24  1  0  0  0  0
 21 22  1  0  0  0  0
 23 21  1  0  0  0  0
 25 19  1  0  0  0  0
 25 28  1  0  0  0  0
 26 25  1  0  0  0  0
 27 25  1  0  0  0  0
M  END
