1
 OpenBabel05122313063D

 14 13  0  0  0  0  0  0  0  0999 V2000
   -2.0313   -1.2261    0.5213 S   0  0  0  0  0  1  0  0  0  0  0  0
   -2.6179   -2.6469   -0.5567 C   0  0  0  0  0  0  0  0  0  0  0  0
   -1.9175   -3.9468   -0.1339 C   0  0  0  0  0  0  0  0  0  0  0  0
   -2.3229   -4.8102   -0.7076 H   0  0  0  0  0  0  0  0  0  0  0  0
   -2.0777   -4.1439    0.9450 H   0  0  0  0  0  0  0  0  0  0  0  0
   -0.8277   -3.8928   -0.3194 H   0  0  0  0  0  0  0  0  0  0  0  0
   -4.1251   -2.7548   -0.2729 C   0  0  0  0  0  0  0  0  0  0  0  0
   -4.5611   -3.6145   -0.8276 H   0  0  0  0  0  0  0  0  0  0  0  0
   -4.6565   -1.8332   -0.5852 H   0  0  0  0  0  0  0  0  0  0  0  0
   -4.3150   -2.9079    0.8087 H   0  0  0  0  0  0  0  0  0  0  0  0
   -2.3864   -2.3653   -2.0450 C   0  0  0  0  0  0  0  0  0  0  0  0
   -1.3084   -2.2454   -2.2686 H   0  0  0  0  0  0  0  0  0  0  0  0
   -2.9123   -1.4431   -2.3636 H   0  0  0  0  0  0  0  0  0  0  0  0
   -2.7735   -3.2079   -2.6591 H   0  0  0  0  0  0  0  0  0  0  0  0
  2  7  1  0  0  0  0
  2  3  1  0  0  0  0
  2  1  1  0  0  0  0
  3  5  1  0  0  0  0
  4  3  1  0  0  0  0
  6  3  1  0  0  0  0
  7 10  1  0  0  0  0
  8  7  1  0  0  0  0
  9  7  1  0  0  0  0
 11  2  1  0  0  0  0
 12 11  1  0  0  0  0
 13 11  1  0  0  0  0
 14 11  1  0  0  0  0
M  END
