3
 OpenBabel05122313063D

 15 16  0  0  1  0  0  0  0  0999 V2000
   -4.0691   -0.9611   -2.8625 S   0  0  0  0  0  0  0  0  0  0  0  0
   -2.6244   -1.1709   -1.8428 C   0  0  1  0  0  3  0  0  0  0  0  0
   -1.0599   -0.9036   -2.3878 S   0  0  0  0  0  1  0  0  0  0  0  0
   -3.0097   -1.5464   -0.6005 N   0  0  0  0  0  0  0  0  0  0  0  0
   -2.2972   -1.7315    0.1561 H   0  0  0  0  0  0  0  0  0  0  0  0
   -4.3684   -1.6484   -0.3636 C   0  0  0  0  0  0  0  0  0  0  0  0
   -4.9859   -1.9752    0.8544 C   0  0  0  0  0  0  0  0  0  0  0  0
   -4.3676   -2.1903    1.7379 H   0  0  0  0  0  0  0  0  0  0  0  0
   -6.3855   -1.9951    0.8951 C   0  0  0  0  0  0  0  0  0  0  0  0
   -6.8929   -2.2433    1.8390 H   0  0  0  0  0  0  0  0  0  0  0  0
   -7.1533   -1.6997   -0.2506 C   0  0  0  0  0  0  0  0  0  0  0  0
   -8.2516   -1.7219   -0.1917 H   0  0  0  0  0  0  0  0  0  0  0  0
   -6.5375   -1.3802   -1.4711 C   0  0  0  0  0  0  0  0  0  0  0  0
   -7.1368   -1.1506   -2.3639 H   0  0  0  0  0  0  0  0  0  0  0  0
   -5.1369   -1.3570   -1.5192 C   0  0  0  0  0  0  0  0  0  0  0  0
  1  2  1  0  0  0  0
  1 15  1  0  0  0  0
  2  3  1  1  0  0  0
  2  4  1  0  0  0  0
  4  6  1  0  0  0  0
  4  5  1  0  0  0  0
  6  7  1  0  0  0  0
  7  9  2  0  0  0  0
  7  8  1  0  0  0  0
  9 10  1  0  0  0  0
 11 12  1  0  0  0  0
 11  9  1  0  0  0  0
 13 11  2  0  0  0  0
 14 13  1  0  0  0  0
 15 13  1  0  0  0  0
 15  6  2  0  0  0  0
M  END
