1
 OpenBabel05122313063D

 25 25  0  0  0  0  0  0  0  0999 V2000
   -0.0852    0.6640   -0.8422 S   0  0  0  0  0  1  0  0  0  0  0  0
   10.0129    2.9771   -0.0958 O   0  0  0  0  0  0  0  0  0  0  0  0
    3.6935    1.6305   -0.5041 N   0  0  0  0  0  0  0  0  0  0  0  0
    2.4495    1.4008   -0.9705 N   0  0  0  0  0  0  0  0  0  0  0  0
    2.2204    1.4330   -1.9760 H   0  0  0  0  0  0  0  0  0  0  0  0
    1.7429    0.8404    1.1527 N   0  0  0  0  0  4  0  0  0  0  0  0
    2.7360    0.8672    1.4067 H   0  0  0  0  0  0  0  0  0  0  0  0
    1.0616    0.3564    1.7649 H   0  0  0  0  0  0  0  0  0  0  0  0
    5.9932    2.2098   -0.9862 C   0  0  0  0  0  0  0  0  0  0  0  0
    6.4419    2.1111    0.3508 C   0  0  0  0  0  0  0  0  0  0  0  0
    5.7208    1.8284    1.1312 H   0  0  0  0  0  0  0  0  0  0  0  0
    7.7739    2.3593    0.6892 C   0  0  0  0  0  0  0  0  0  0  0  0
    8.0879    2.2694    1.7374 H   0  0  0  0  0  0  0  0  0  0  0  0
    8.7013    2.7175   -0.3179 C   0  0  0  0  0  0  0  0  0  0  0  0
    8.2663    2.8201   -1.6588 C   0  0  0  0  0  0  0  0  0  0  0  0
    9.0031    3.0975   -2.4259 H   0  0  0  0  0  0  0  0  0  0  0  0
    6.9355    2.5689   -1.9825 C   0  0  0  0  0  0  0  0  0  0  0  0
    6.6091    2.6486   -3.0316 H   0  0  0  0  0  0  0  0  0  0  0  0
    4.6121    1.9505   -1.3640 C   0  0  0  0  0  0  0  0  0  0  0  0
    4.3655    2.0341   -2.4473 H   0  0  0  0  0  0  0  0  0  0  0  0
    1.4485    0.9735   -0.1440 C   0  0  0  0  0  0  0  0  0  0  0  0
   10.5129    2.8807    1.2272 C   0  0  0  0  0  0  0  0  0  0  0  0
   11.5891    3.1269    1.1718 H   0  0  0  0  0  0  0  0  0  0  0  0
   10.3969    1.8535    1.6384 H   0  0  0  0  0  0  0  0  0  0  0  0
   10.0113    3.6004    1.9117 H   0  0  0  0  0  0  0  0  0  0  0  0
  1 21  1  0  0  0  0
  2 22  1  0  0  0  0
  4  3  1  0  0  0  0
  4 21  1  0  0  0  0
  5  4  1  0  0  0  0
  6  7  1  0  0  0  0
  6  8  1  0  0  0  0
  9 10  1  0  0  0  0
 10 12  2  0  0  0  0
 10 11  1  0  0  0  0
 12 13  1  0  0  0  0
 14  2  1  0  0  0  0
 14 12  1  0  0  0  0
 15 14  2  0  0  0  0
 16 15  1  0  0  0  0
 17 15  1  0  0  0  0
 17  9  2  0  0  0  0
 18 17  1  0  0  0  0
 19  9  1  0  0  0  0
 19  3  2  0  0  0  0
 20 19  1  0  0  0  0
 21  6  2  0  0  0  0
 22 24  1  0  0  0  0
 22 25  1  0  0  0  0
 23 22  1  0  0  0  0
M  END
