1
 OpenBabel05122313063D

 27 27  0  0  1  0  0  0  0  0999 V2000
    1.8844   -3.0553   -0.1253 S   0  0  0  0  0  1  0  0  0  0  0  0
    4.4889   -2.4668   -0.1491 N   0  0  0  0  0  0  0  0  0  0  0  0
    5.1995   -1.7226   -0.1579 H   0  0  0  0  0  0  0  0  0  0  0  0
    3.0999   -0.6325   -0.0713 N   0  0  0  0  0  0  0  0  0  0  0  0
    2.1273   -0.2410   -0.0646 H   0  0  0  0  0  0  0  0  0  0  0  0
    4.2301    0.1038   -0.0369 N   0  0  0  0  0  0  0  0  0  0  0  0
    3.2272   -2.0003   -0.1139 C   0  0  1  0  0  3  0  0  0  0  0  0
    4.8385   -3.8674   -0.1972 C   0  0  0  0  0  0  0  0  0  0  0  0
    5.9402   -3.9600   -0.1797 H   0  0  0  0  0  0  0  0  0  0  0  0
    4.4478   -4.3530   -1.1169 H   0  0  0  0  0  0  0  0  0  0  0  0
    4.4127   -4.4168    0.6688 H   0  0  0  0  0  0  0  0  0  0  0  0
    4.1805    1.4089   -0.0353 C   0  0  0  0  0  0  0  0  0  0  0  0
    2.8917    2.1804   -0.0916 C   0  0  0  0  0  0  0  0  0  0  0  0
    2.3871    2.0577   -1.0738 H   0  0  0  0  0  0  0  0  0  0  0  0
    3.0410    3.2572    0.0967 H   0  0  0  0  0  0  0  0  0  0  0  0
    2.1632    1.7958    0.6522 H   0  0  0  0  0  0  0  0  0  0  0  0
    5.4879    2.1070    0.0178 C   0  0  0  0  0  0  0  0  0  0  0  0
    6.6408    1.4439    0.5047 C   0  0  0  0  0  0  0  0  0  0  0  0
    6.5356    0.4141    0.8743 H   0  0  0  0  0  0  0  0  0  0  0  0
    7.8811    2.0882    0.5394 C   0  0  0  0  0  0  0  0  0  0  0  0
    8.7610    1.5562    0.9325 H   0  0  0  0  0  0  0  0  0  0  0  0
    8.0054    3.4141    0.0876 C   0  0  0  0  0  0  0  0  0  0  0  0
    8.9812    3.9220    0.1185 H   0  0  0  0  0  0  0  0  0  0  0  0
    6.8729    4.0857   -0.3958 C   0  0  0  0  0  0  0  0  0  0  0  0
    6.9575    5.1223   -0.7560 H   0  0  0  0  0  0  0  0  0  0  0  0
    5.6273    3.4423   -0.4261 C   0  0  0  0  0  0  0  0  0  0  0  0
    4.7557    3.9826   -0.8231 H   0  0  0  0  0  0  0  0  0  0  0  0
  2  7  1  0  0  0  0
  3  2  1  0  0  0  0
  4  5  1  0  0  0  0
  4  6  1  0  0  0  0
  6 12  2  0  0  0  0
  7  1  1  6  0  0  0
  7  4  1  0  0  0  0
  8  9  1  0  0  0  0
  8  2  1  0  0  0  0
  8 11  1  0  0  0  0
 10  8  1  0  0  0  0
 12 17  1  0  0  0  0
 13 12  1  0  0  0  0
 13 15  1  0  0  0  0
 13 16  1  0  0  0  0
 14 13  1  0  0  0  0
 17 18  1  0  0  0  0
 18 20  2  0  0  0  0
 18 19  1  0  0  0  0
 20 21  1  0  0  0  0
 22 23  1  0  0  0  0
 22 20  1  0  0  0  0
 24 22  2  0  0  0  0
 25 24  1  0  0  0  0
 26 24  1  0  0  0  0
 26 17  2  0  0  0  0
 27 26  1  0  0  0  0
M  END
