1
 OpenBabel05122313063D

 19 19  0  0  0  0  0  0  0  0999 V2000
    2.9702   -2.0246    1.0891 S   0  0  0  0  0  1  0  0  0  0  0  0
    5.3274   -1.9592    0.0949 O   0  0  0  0  0  0  0  0  0  0  0  0
    4.2855    0.0376   -0.2801 N   0  0  0  0  0  0  0  0  0  0  0  0
    4.2474   -1.1496    0.2112 C   0  0  0  0  0  0  0  0  0  0  0  0
    3.3434    1.0375   -0.1206 C   0  0  0  0  0  0  0  0  0  0  0  0
    2.5992    1.5056   -1.2332 C   0  0  0  0  0  0  0  0  0  0  0  0
    2.7344    1.0022   -2.2017 H   0  0  0  0  0  0  0  0  0  0  0  0
    1.7227    2.5919   -1.1038 C   0  0  0  0  0  0  0  0  0  0  0  0
    1.1490    2.9303   -1.9799 H   0  0  0  0  0  0  0  0  0  0  0  0
    1.5696    3.2436    0.1298 C   0  0  0  0  0  0  0  0  0  0  0  0
    0.8845    4.0993    0.2254 H   0  0  0  0  0  0  0  0  0  0  0  0
    2.3002    2.7861    1.2419 C   0  0  0  0  0  0  0  0  0  0  0  0
    2.1941    3.2908    2.2157 H   0  0  0  0  0  0  0  0  0  0  0  0
    3.1677    1.6932    1.1275 C   0  0  0  0  0  0  0  0  0  0  0  0
    3.7395    1.3326    1.9947 H   0  0  0  0  0  0  0  0  0  0  0  0
    6.4836   -1.3805   -0.5087 C   0  0  0  0  0  0  0  0  0  0  0  0
    7.2596   -2.1681   -0.4923 H   0  0  0  0  0  0  0  0  0  0  0  0
    6.8245   -0.4857    0.0529 H   0  0  0  0  0  0  0  0  0  0  0  0
    6.2722   -1.0632   -1.5510 H   0  0  0  0  0  0  0  0  0  0  0  0
  2  4  1  0  0  0  0
  3  5  1  0  0  0  0
  3  4  2  0  0  0  0
  4  1  1  0  0  0  0
  5 14  1  0  0  0  0
  6  8  1  0  0  0  0
  6  5  2  0  0  0  0
  7  6  1  0  0  0  0
  8 10  2  0  0  0  0
  9  8  1  0  0  0  0
 10 11  1  0  0  0  0
 10 12  1  0  0  0  0
 12 13  1  0  0  0  0
 14 12  2  0  0  0  0
 14 15  1  0  0  0  0
 16 17  1  0  0  0  0
 16 18  1  0  0  0  0
 16  2  1  0  0  0  0
 19 16  1  0  0  0  0
M  END
