1
 OpenBabel05122313063D

 27 28  0  0  1  0  0  0  0  0999 V2000
    1.2226    0.7626   -0.2140 S   0  0  0  0  0  1  0  0  0  0  0  0
    2.8048   -1.3796   -0.1329 N   0  0  0  0  0  0  0  0  0  0  0  0
    3.9517    0.6288   -0.0745 N   0  0  0  0  0  0  0  0  0  0  0  0
    5.1392   -1.7347    0.0205 N   0  0  0  0  0  0  0  0  0  0  0  0
    4.3241    1.9830   -0.0558 C   0  0  0  0  0  0  0  0  0  0  0  0
    3.4551    3.0776   -0.2602 C   0  0  0  0  0  0  0  0  0  0  0  0
    3.9653    4.3835   -0.2253 C   0  0  0  0  0  0  0  0  0  0  0  0
    5.3267    4.6286    0.0066 C   0  0  0  0  0  0  0  0  0  0  0  0
    6.1929    3.5404    0.2048 C   0  0  0  0  0  0  0  0  0  0  0  0
    5.6996    2.2331    0.1745 C   0  0  0  0  0  0  0  0  0  0  0  0
    2.7596   -0.0061   -0.1385 C   0  0  2  0  0  3  0  0  0  0  0  0
    3.8920   -2.2436   -0.0571 C   0  0  0  0  0  0  0  0  0  0  0  0
    3.6413   -3.6407   -0.0636 C   0  0  0  0  0  0  0  0  0  0  0  0
    4.7335   -4.5007    0.0116 C   0  0  0  0  0  0  0  0  0  0  0  0
    6.0380   -3.9714    0.0918 C   0  0  0  0  0  0  0  0  0  0  0  0
    6.1818   -2.5821    0.0929 C   0  0  0  0  0  0  0  0  0  0  0  0
    2.3895    2.8986   -0.4450 H   0  0  0  0  0  0  0  0  0  0  0  0
    3.2747    5.2255   -0.3863 H   0  0  0  0  0  0  0  0  0  0  0  0
    5.7120    5.6586    0.0320 H   0  0  0  0  0  0  0  0  0  0  0  0
    7.2650    3.7099    0.3869 H   0  0  0  0  0  0  0  0  0  0  0  0
    6.3794    1.3812    0.3333 H   0  0  0  0  0  0  0  0  0  0  0  0
    2.6005   -3.9950   -0.1253 H   0  0  0  0  0  0  0  0  0  0  0  0
    4.5721   -5.5894    0.0087 H   0  0  0  0  0  0  0  0  0  0  0  0
    6.9207   -4.6233    0.1523 H   0  0  0  0  0  0  0  0  0  0  0  0
    7.1794   -2.1150    0.1543 H   0  0  0  0  0  0  0  0  0  0  0  0
    1.8663   -1.8534   -0.1838 H   0  0  0  0  0  0  0  0  0  0  0  0
    4.7451   -0.0691   -0.0124 H   0  0  0  0  0  0  0  0  0  0  0  0
  2 12  1  0  0  0  0
  3  5  1  0  0  0  0
  3 27  1  0  0  0  0
  4 16  1  0  0  0  0
  5 10  1  0  0  0  0
  6  7  1  0  0  0  0
  6  5  2  0  0  0  0
  7  8  2  0  0  0  0
  8 19  1  0  0  0  0
  8  9  1  0  0  0  0
  9 20  1  0  0  0  0
 10  9  2  0  0  0  0
 10 21  1  0  0  0  0
 11  1  1  1  0  0  0
 11  2  1  0  0  0  0
 11  3  1  0  0  0  0
 12  4  2  0  0  0  0
 13 12  1  0  0  0  0
 13 14  2  0  0  0  0
 14 15  1  0  0  0  0
 15 16  2  0  0  0  0
 15 24  1  0  0  0  0
 16 25  1  0  0  0  0
 17  6  1  0  0  0  0
 18  7  1  0  0  0  0
 22 13  1  0  0  0  0
 23 14  1  0  0  0  0
 26  2  1  0  0  0  0
M  END
