1
 OpenBabel05122313063D

 22 21  0  0  0  0  0  0  0  0999 V2000
    1.0366   -2.0096   -0.0008 S   0  0  0  0  0  0  0  0  0  0  0  0
   -3.3026    1.4285    0.0008 S   0  0  0  0  0  0  0  0  0  0  0  0
   -3.7187   -1.5305    0.0013 S   0  0  0  0  0  0  0  0  0  0  0  0
   -0.6053   -1.6649   -0.0005 C   0  0  0  0  0  0  0  0  0  0  0  0
   -1.2246   -0.4010    0.0003 C   0  0  0  0  0  0  0  0  0  0  0  0
   -2.6026   -0.1739    0.0006 C   0  0  0  0  0  0  0  0  0  0  0  0
   -1.8509    2.5523   -0.0001 C   0  0  0  0  0  0  0  0  0  0  0  0
   -2.3552    3.9917   -0.0008 C   0  0  0  0  0  0  0  0  0  0  0  0
   -5.3844   -0.7603   -0.0008 C   0  0  0  0  0  0  0  0  0  0  0  0
   -6.4278   -1.8730   -0.0014 C   0  0  0  0  0  0  0  0  0  0  0  0
   -1.2486   -2.5659   -0.0010 H   0  0  0  0  0  0  0  0  0  0  0  0
   -0.5621    0.4707    0.0006 H   0  0  0  0  0  0  0  0  0  0  0  0
   -1.2421    2.3348    0.9006 H   0  0  0  0  0  0  0  0  0  0  0  0
   -1.4877    4.6809   -0.0013 H   0  0  0  0  0  0  0  0  0  0  0  0
   -2.9645    4.2137    0.8978 H   0  0  0  0  0  0  0  0  0  0  0  0
   -5.4755   -0.1165    0.8977 H   0  0  0  0  0  0  0  0  0  0  0  0
   -7.4430   -1.4291   -0.0026 H   0  0  0  0  0  0  0  0  0  0  0  0
   -6.3381   -2.5158    0.8969 H   0  0  0  0  0  0  0  0  0  0  0  0
   -1.2424    2.3338   -0.9008 H   0  0  0  0  0  0  0  0  0  0  0  0
   -2.9648    4.2128   -0.8994 H   0  0  0  0  0  0  0  0  0  0  0  0
   -5.4736   -0.1174   -0.9002 H   0  0  0  0  0  0  0  0  0  0  0  0
   -6.3362   -2.5166   -0.8989 H   0  0  0  0  0  0  0  0  0  0  0  0
  1  4  2  0  0  0  0
  4  5  1  0  0  0  0
  5 12  1  0  0  0  0
  5  6  2  0  0  0  0
  6  2  1  0  0  0  0
  6  3  1  0  0  0  0
  7  2  1  0  0  0  0
  7 13  1  0  0  0  0
  8  7  1  0  0  0  0
  8 15  1  0  0  0  0
  9  3  1  0  0  0  0
  9 16  1  0  0  0  0
 10  9  1  0  0  0  0
 10 18  1  0  0  0  0
 11  4  1  0  0  0  0
 14  8  1  0  0  0  0
 17 10  1  0  0  0  0
 19  7  1  0  0  0  0
 20  8  1  0  0  0  0
 21  9  1  0  0  0  0
 22 10  1  0  0  0  0
M  END
