1
 OpenBabel05122313063D

 14 14  0  0  0  0  0  0  0  0999 V2000
   -2.1711   -1.0055   -0.0011 S   0  0  0  0  0  1  0  0  0  0  0  0
   -2.8240    1.5929   -0.0000 O   0  0  0  0  0  0  0  0  0  0  0  0
   -3.2106    0.4212   -0.0002 C   0  0  0  0  0  0  0  0  0  0  0  0
   -4.7071    0.1433    0.0004 C   0  0  0  0  0  0  0  0  0  0  0  0
   -5.5712    1.2583    0.0006 C   0  0  0  0  0  0  0  0  0  0  0  0
   -5.1026    2.2540    0.0003 H   0  0  0  0  0  0  0  0  0  0  0  0
   -6.9621    1.0878    0.0012 C   0  0  0  0  0  0  0  0  0  0  0  0
   -7.6246    1.9685    0.0013 H   0  0  0  0  0  0  0  0  0  0  0  0
   -7.5129   -0.2051    0.0017 C   0  0  0  0  0  0  0  0  0  0  0  0
   -8.6060   -0.3425    0.0022 H   0  0  0  0  0  0  0  0  0  0  0  0
   -6.6602   -1.3225    0.0016 C   0  0  0  0  0  0  0  0  0  0  0  0
   -7.0850   -2.3390    0.0020 H   0  0  0  0  0  0  0  0  0  0  0  0
   -5.2683   -1.1501    0.0009 C   0  0  0  0  0  0  0  0  0  0  0  0
   -4.5857   -2.0135    0.0009 H   0  0  0  0  0  0  0  0  0  0  0  0
  1  3  1  0  0  0  0
  3  2  2  0  0  0  0
  3  4  1  0  0  0  0
  4  5  2  0  0  0  0
  4 13  1  0  0  0  0
  5  7  1  0  0  0  0
  6  5  1  0  0  0  0
  7  8  1  0  0  0  0
  7  9  2  0  0  0  0
  9 10  1  0  0  0  0
 11  9  1  0  0  0  0
 11 12  1  0  0  0  0
 13 11  2  0  0  0  0
 14 13  1  0  0  0  0
M  END
