1
 OpenBabel05122313063D

 38 39  0  0  0  0  0  0  0  0999 V2000
   -0.8691    1.0656   -1.9112 S   0  0  0  0  0  1  0  0  0  0  0  0
   -4.6482   -0.6307   -0.5077 N   0  0  0  0  0  0  0  0  0  0  0  0
   -3.2979    1.6517   -0.4788 N   0  0  0  0  0  0  0  0  0  0  0  0
   -2.9901    0.7827   -0.9802 H   0  0  0  0  0  0  0  0  0  0  0  0
   -2.4923    2.7289   -0.4460 N   0  0  0  0  0  0  0  0  0  0  0  0
   -0.4659    3.6306   -1.0414 N   0  0  0  0  0  0  0  0  0  0  0  0
   -4.8727    2.7760    0.7679 N   0  0  0  0  0  4  0  0  0  0  0  0
   -5.6834    2.7881    1.3800 H   0  0  0  0  0  0  0  0  0  0  0  0
   -4.2107    3.5575    0.7669 H   0  0  0  0  0  0  0  0  0  0  0  0
   -5.3053   -1.7892   -0.6027 C   0  0  0  0  0  0  0  0  0  0  0  0
   -4.7659   -2.6182   -1.0921 H   0  0  0  0  0  0  0  0  0  0  0  0
   -6.6126   -1.9759   -0.1142 C   0  0  0  0  0  0  0  0  0  0  0  0
   -7.1087   -2.9521   -0.2122 H   0  0  0  0  0  0  0  0  0  0  0  0
   -7.2591   -0.8881    0.4867 C   0  0  0  0  0  0  0  0  0  0  0  0
   -8.2849   -0.9856    0.8718 H   0  0  0  0  0  0  0  0  0  0  0  0
   -6.5827    0.3359    0.5835 C   0  0  0  0  0  0  0  0  0  0  0  0
   -7.0857    1.2066    1.0293 H   0  0  0  0  0  0  0  0  0  0  0  0
   -5.2697    0.4149    0.0774 C   0  0  0  0  0  0  0  0  0  0  0  0
   -4.4708    1.6554    0.1397 C   0  0  0  0  0  0  0  0  0  0  0  0
   -1.3170    2.5746   -1.0610 C   0  0  0  0  0  0  0  0  0  0  0  0
    0.9017    3.5724   -1.5648 C   0  0  0  0  0  0  0  0  0  0  0  0
    1.1183    4.5718   -1.9976 H   0  0  0  0  0  0  0  0  0  0  0  0
    0.9226    2.8323   -2.3868 H   0  0  0  0  0  0  0  0  0  0  0  0
    1.9525    3.2085   -0.5073 C   0  0  0  0  0  0  0  0  0  0  0  0
    1.8502    2.1274   -0.2626 H   0  0  0  0  0  0  0  0  0  0  0  0
    2.9495    3.3221   -0.9848 H   0  0  0  0  0  0  0  0  0  0  0  0
    1.8993    4.0108    0.8023 C   0  0  0  0  0  0  0  0  0  0  0  0
    2.7732    3.7080    1.4166 H   0  0  0  0  0  0  0  0  0  0  0  0
    2.0398    5.0980    0.6053 H   0  0  0  0  0  0  0  0  0  0  0  0
    0.6205    3.7750    1.6301 C   0  0  0  0  0  0  0  0  0  0  0  0
    0.3443    2.6996    1.5401 H   0  0  0  0  0  0  0  0  0  0  0  0
    0.8372    3.9348    2.7061 H   0  0  0  0  0  0  0  0  0  0  0  0
   -0.5927    4.6443    1.2577 C   0  0  0  0  0  0  0  0  0  0  0  0
   -1.5010    4.1976    1.7103 H   0  0  0  0  0  0  0  0  0  0  0  0
   -0.4875    5.6595    1.6965 H   0  0  0  0  0  0  0  0  0  0  0  0
   -0.8074    4.8220   -0.2567 C   0  0  0  0  0  0  0  0  0  0  0  0
   -1.8582    5.0977   -0.4713 H   0  0  0  0  0  0  0  0  0  0  0  0
   -0.1653    5.6368   -0.6431 H   0  0  0  0  0  0  0  0  0  0  0  0
  1 20  1  0  0  0  0
  2 18  1  0  0  0  0
  3  5  1  0  0  0  0
  3 19  1  0  0  0  0
  4  3  1  0  0  0  0
  6 36  1  0  0  0  0
  7  8  1  0  0  0  0
  9  7  1  0  0  0  0
 10  2  2  0  0  0  0
 10 12  1  0  0  0  0
 11 10  1  0  0  0  0
 12 14  2  0  0  0  0
 13 12  1  0  0  0  0
 14 16  1  0  0  0  0
 14 15  1  0  0  0  0
 16 17  1  0  0  0  0
 18 19  1  0  0  0  0
 18 16  2  0  0  0  0
 19  7  2  0  0  0  0
 20  6  1  0  0  0  0
 20  5  2  0  0  0  0
 21  6  1  0  0  0  0
 21 24  1  0  0  0  0
 22 21  1  0  0  0  0
 23 21  1  0  0  0  0
 24 25  1  0  0  0  0
 24 27  1  0  0  0  0
 26 24  1  0  0  0  0
 27 28  1  0  0  0  0
 27 30  1  0  0  0  0
 29 27  1  0  0  0  0
 30 32  1  0  0  0  0
 31 30  1  0  0  0  0
 33 30  1  0  0  0  0
 33 35  1  0  0  0  0
 33 34  1  0  0  0  0
 36 33  1  0  0  0  0
 37 36  1  0  0  0  0
 38 36  1  0  0  0  0
M  END
