1
 OpenBabel05122313063D

 22 22  0  0  1  0  0  0  0  0999 V2000
   -0.1495   -0.2029   -1.9034 S   0  0  0  0  0  1  0  0  0  0  0  0
   -1.6161   -0.0857   -1.0178 C   0  0  2  0  0  3  0  0  0  0  0  0
   -2.2475    1.0598   -0.6104 N   0  0  0  0  0  0  0  0  0  0  0  0
   -2.3852   -1.1187   -0.5514 N   0  0  0  0  0  0  0  0  0  0  0  0
   -2.0768   -2.5220   -0.7576 C   0  0  0  0  0  0  0  0  0  0  0  0
   -1.1797   -2.5675   -1.4038 H   0  0  0  0  0  0  0  0  0  0  0  0
   -2.9233   -3.0350   -1.2544 H   0  0  0  0  0  0  0  0  0  0  0  0
   -1.8533   -3.0197    0.2059 H   0  0  0  0  0  0  0  0  0  0  0  0
   -3.3796    0.7496    0.1456 C   0  0  0  0  0  0  0  0  0  0  0  0
   -1.7529    2.3981   -0.8744 C   0  0  0  0  0  0  0  0  0  0  0  0
   -0.8995    2.3028   -1.5719 H   0  0  0  0  0  0  0  0  0  0  0  0
   -1.4065    2.8763    0.0628 H   0  0  0  0  0  0  0  0  0  0  0  0
   -2.5473    3.0172   -1.3340 H   0  0  0  0  0  0  0  0  0  0  0  0
   -3.4707   -0.6271    0.1782 C   0  0  0  0  0  0  0  0  0  0  0  0
   -4.2155    1.8008    0.7865 C   0  0  0  0  0  0  0  0  0  0  0  0
   -5.0681    1.3441    1.3216 H   0  0  0  0  0  0  0  0  0  0  0  0
   -4.6269    2.5185    0.0463 H   0  0  0  0  0  0  0  0  0  0  0  0
   -3.6252    2.3832    1.5252 H   0  0  0  0  0  0  0  0  0  0  0  0
   -4.4589   -1.5268    0.8342 C   0  0  0  0  0  0  0  0  0  0  0  0
   -5.2272   -0.9342    1.3637 H   0  0  0  0  0  0  0  0  0  0  0  0
   -3.9759   -2.1939    1.5789 H   0  0  0  0  0  0  0  0  0  0  0  0
   -4.9814   -2.1760    0.1003 H   0  0  0  0  0  0  0  0  0  0  0  0
  2  1  1  1  0  0  0
  2  3  1  0  0  0  0
  2  4  1  0  0  0  0
  3  9  1  0  0  0  0
  4 14  1  0  0  0  0
  5  4  1  0  0  0  0
  5  8  1  0  0  0  0
  6  5  1  0  0  0  0
  7  5  1  0  0  0  0
  9 14  2  0  0  0  0
  9 15  1  0  0  0  0
 10  3  1  0  0  0  0
 10 12  1  0  0  0  0
 11 10  1  0  0  0  0
 13 10  1  0  0  0  0
 14 19  1  0  0  0  0
 15 16  1  0  0  0  0
 15 18  1  0  0  0  0
 17 15  1  0  0  0  0
 19 20  1  0  0  0  0
 19 21  1  0  0  0  0
 22 19  1  0  0  0  0
M  END
