1
 OpenBabel05122313063D

 14 14  0  0  0  0  0  0  0  0999 V2000
    0.6804   -1.1852    0.0001 S   0  0  0  0  0  1  0  0  0  0  0  0
    2.9884   -2.1651    0.0002 O   0  5  0  0  0  0  0  0  0  0  0  0
    5.0263   -1.1591    0.0001 O   0  0  0  0  0  0  0  0  0  0  0  0
    1.6462    0.3261    0.0000 C   0  0  0  0  0  0  0  0  0  0  0  0
    1.0865    1.6282   -0.0001 C   0  0  0  0  0  0  0  0  0  0  0  0
   -0.0093    1.7530   -0.0001 H   0  0  0  0  0  0  0  0  0  0  0  0
    1.8955    2.7721   -0.0001 C   0  0  0  0  0  0  0  0  0  0  0  0
    1.4200    3.7669   -0.0001 H   0  0  0  0  0  0  0  0  0  0  0  0
    3.2964    2.6492   -0.0001 C   0  0  0  0  0  0  0  0  0  0  0  0
    3.9365    3.5468   -0.0001 H   0  0  0  0  0  0  0  0  0  0  0  0
    3.8552    1.3655   -0.0000 C   0  0  0  0  0  0  0  0  0  0  0  0
    4.9417    1.1755   -0.0000 H   0  0  0  0  0  0  0  0  0  0  0  0
    3.0609    0.2055    0.0000 C   0  0  0  0  0  0  0  0  0  0  0  0
    3.7732   -1.1639    0.0001 C   0  0  0  0  0  0  0  0  0  0  0  0
  3 14  2  0  0  0  0
  4 13  1  0  0  0  0
  4  1  1  0  0  0  0
  5  4  2  0  0  0  0
  6  5  1  0  0  0  0
  7  9  2  0  0  0  0
  7  5  1  0  0  0  0
  8  7  1  0  0  0  0
  9 11  1  0  0  0  0
 10  9  1  0  0  0  0
 11 12  1  0  0  0  0
 11 13  2  0  0  0  0
 13 14  1  0  0  0  0
 14  2  1  0  0  0  0
M  CHG  1   2  -1
M  END
