1
 OpenBabel05122313063D

 21 21  0  0  1  0  0  0  0  0999 V2000
    2.2634    0.8274    0.2012 S   0  0  0  0  0  1  0  0  0  0  0  0
    3.0157   -0.5732   -0.4626 C   0  0  2  0  0  3  0  0  0  0  0  0
    2.4502   -1.7845   -0.6627 N   0  0  0  0  0  0  0  0  0  0  0  0
    3.3504   -2.6720   -1.4036 C   0  0  0  0  0  0  0  0  0  0  0  0
    4.7082   -1.9685   -1.1973 C   0  0  0  0  0  0  0  0  0  0  0  0
    4.3104   -0.5977   -0.8392 N   0  0  0  0  0  0  0  0  0  0  0  0
    5.2791    0.4651   -0.5935 C   0  0  0  0  0  0  0  0  0  0  0  0
    5.9544    0.3882    0.7818 C   0  0  0  0  0  0  0  0  0  0  0  0
    6.9531    1.5265    0.9879 C   0  0  0  0  0  0  0  0  0  0  0  0
    1.4356   -1.9003   -0.6090 H   0  0  0  0  0  0  0  0  0  0  0  0
    3.0645   -2.7167   -2.4777 H   0  0  0  0  0  0  0  0  0  0  0  0
    3.3359   -3.6999   -0.9941 H   0  0  0  0  0  0  0  0  0  0  0  0
    5.3402   -1.9681   -2.1066 H   0  0  0  0  0  0  0  0  0  0  0  0
    5.2922   -2.4235   -0.3670 H   0  0  0  0  0  0  0  0  0  0  0  0
    4.7439    1.4309   -0.7068 H   0  0  0  0  0  0  0  0  0  0  0  0
    6.0331    0.4176   -1.4070 H   0  0  0  0  0  0  0  0  0  0  0  0
    6.4676   -0.5918    0.8893 H   0  0  0  0  0  0  0  0  0  0  0  0
    5.1651    0.4213    1.5630 H   0  0  0  0  0  0  0  0  0  0  0  0
    7.4305    1.4608    1.9844 H   0  0  0  0  0  0  0  0  0  0  0  0
    7.7614    1.5029    0.2283 H   0  0  0  0  0  0  0  0  0  0  0  0
    6.4571    2.5164    0.9196 H   0  0  0  0  0  0  0  0  0  0  0  0
  2  1  1  1  0  0  0
  3 10  1  0  0  0  0
  3  2  1  0  0  0  0
  4  5  1  0  0  0  0
  4 12  1  0  0  0  0
  4  3  1  0  0  0  0
  5  6  1  0  0  0  0
  5 14  1  0  0  0  0
  6  7  1  0  0  0  0
  6  2  1  0  0  0  0
  7  8  1  0  0  0  0
  8 17  1  0  0  0  0
  8  9  1  0  0  0  0
  8 18  1  0  0  0  0
  9 19  1  0  0  0  0
 11  4  1  0  0  0  0
 13  5  1  0  0  0  0
 15  7  1  0  0  0  0
 16  7  1  0  0  0  0
 20  9  1  0  0  0  0
 21  9  1  0  0  0  0
M  END
