1
 OpenBabel05122313063D

 27 28  0  0  0  0  0  0  0  0999 V2000
    0.0596   -2.4769    0.5308 S   0  0  0  0  0  1  0  0  0  0  0  0
   -2.7840   -1.5775   -0.1426 N   0  0  0  0  0  0  0  0  0  0  0  0
   -2.4451   -2.9228   -0.5450 C   0  0  0  0  0  0  0  0  0  0  0  0
   -3.0306   -0.6073   -1.1787 C   0  0  0  0  0  0  0  0  0  0  0  0
   -3.5829   -1.3478    1.0413 C   0  0  0  0  0  0  0  0  0  0  0  0
   -0.9533   -3.0753   -0.8950 C   0  0  0  0  0  0  0  0  0  0  0  0
   -2.8566    0.8071   -0.6621 C   0  0  0  0  0  0  0  0  0  0  0  0
   -3.1110   -0.0562    1.7163 C   0  0  0  0  0  0  0  0  0  0  0  0
   -2.8957    1.0667    0.7270 C   0  0  0  0  0  0  0  0  0  0  0  0
   -2.6964    2.3889    1.1768 C   0  0  0  0  0  0  0  0  0  0  0  0
   -2.6452    1.8697   -1.5614 C   0  0  0  0  0  0  0  0  0  0  0  0
   -2.4485    3.1800   -1.1036 C   0  0  0  0  0  0  0  0  0  0  0  0
   -2.4695    3.4401    0.2783 C   0  0  0  0  0  0  0  0  0  0  0  0
   -2.6756   -3.5998    0.3037 H   0  0  0  0  0  0  0  0  0  0  0  0
   -2.3116   -0.7631   -2.0081 H   0  0  0  0  0  0  0  0  0  0  0  0
   -4.0636   -0.7108   -1.6234 H   0  0  0  0  0  0  0  0  0  0  0  0
   -3.0595   -3.2883   -1.4104 H   0  0  0  0  0  0  0  0  0  0  0  0
   -0.6826   -2.5117   -1.8104 H   0  0  0  0  0  0  0  0  0  0  0  0
   -0.7026   -4.1422   -1.0731 H   0  0  0  0  0  0  0  0  0  0  0  0
   -4.6811   -1.2810    0.8043 H   0  0  0  0  0  0  0  0  0  0  0  0
   -3.4534   -2.2001    1.7366 H   0  0  0  0  0  0  0  0  0  0  0  0
   -3.8274    0.2637    2.5033 H   0  0  0  0  0  0  0  0  0  0  0  0
   -2.1380   -0.2557    2.2161 H   0  0  0  0  0  0  0  0  0  0  0  0
   -2.3204    4.4647    0.6528 H   0  0  0  0  0  0  0  0  0  0  0  0
   -2.7267    2.5902    2.2603 H   0  0  0  0  0  0  0  0  0  0  0  0
   -2.2818    3.9979   -1.8215 H   0  0  0  0  0  0  0  0  0  0  0  0
   -2.6223    1.6561   -2.6425 H   0  0  0  0  0  0  0  0  0  0  0  0
  2  5  1  0  0  0  0
  3  2  1  0  0  0  0
  3 14  1  0  0  0  0
  4  7  1  0  0  0  0
  4  2  1  0  0  0  0
  5  8  1  0  0  0  0
  5 21  1  0  0  0  0
  6  3  1  0  0  0  0
  6  1  1  0  0  0  0
  7  9  1  0  0  0  0
  8 23  1  0  0  0  0
  8 22  1  0  0  0  0
  9 10  2  0  0  0  0
  9  8  1  0  0  0  0
 10 25  1  0  0  0  0
 11 12  1  0  0  0  0
 11  7  2  0  0  0  0
 12 13  2  0  0  0  0
 13 24  1  0  0  0  0
 13 10  1  0  0  0  0
 15  4  1  0  0  0  0
 16  4  1  0  0  0  0
 17  3  1  0  0  0  0
 18  6  1  0  0  0  0
 19  6  1  0  0  0  0
 20  5  1  0  0  0  0
 26 12  1  0  0  0  0
 27 11  1  0  0  0  0
M  END
