4
 OpenBabel05122313063D

 27 28  0  0  1  0  0  0  0  0999 V2000
    1.4465    0.3340    1.7685 B   0  0  0  0  0  0  0  0  0  0  0  0
    1.8460    0.5561    2.9110 H   0  0  0  0  0  0  0  0  0  0  0  0
    0.2067    0.2331    1.7456 H   0  0  0  0  0  0  0  0  0  0  0  0
    1.1001   -1.1409   -1.3109 S   0  0  0  0  0  1  0  0  0  0  0  0
    2.0709   -1.0317    1.3225 N   0  0  0  0  0  0  0  0  0  0  0  0
    2.0016   -1.6127    0.1009 C   0  0  2  0  0  3  0  0  0  0  0  0
    2.8367   -2.7010    0.1018 N   0  0  0  0  0  0  0  0  0  0  0  0
    2.9568   -1.7557    2.0948 C   0  0  0  0  0  0  0  0  0  0  0  0
    3.1988   -1.4363    3.1111 H   0  0  0  0  0  0  0  0  0  0  0  0
    3.4433   -2.7965    1.3457 C   0  0  0  0  0  0  0  0  0  0  0  0
    4.1772   -3.5743    1.5730 H   0  0  0  0  0  0  0  0  0  0  0  0
    3.1068   -3.5459   -1.0439 C   0  0  0  0  0  0  0  0  0  0  0  0
    3.9342   -3.1272   -1.6533 H   0  0  0  0  0  0  0  0  0  0  0  0
    2.1972   -3.5959   -1.6727 H   0  0  0  0  0  0  0  0  0  0  0  0
    3.3815   -4.5594   -0.6969 H   0  0  0  0  0  0  0  0  0  0  0  0
    4.5124    0.8015    0.4147 S   0  0  0  0  0  0  0  0  0  0  0  0
    1.8384    1.4500    0.7650 N   0  0  0  0  0  0  0  0  0  0  0  0
    3.0743    1.6554    0.1850 C   0  0  0  0  0  0  0  0  0  0  0  0
    2.9127    2.7521   -0.6642 N   0  0  0  0  0  0  0  0  0  0  0  0
    0.9489    2.3999    0.2873 C   0  0  0  0  0  0  0  0  0  0  0  0
   -0.0875    2.4309    0.6330 H   0  0  0  0  0  0  0  0  0  0  0  0
    1.6066    3.2146   -0.5970 C   0  0  0  0  0  0  0  0  0  0  0  0
    1.2629    4.0758   -1.1773 H   0  0  0  0  0  0  0  0  0  0  0  0
    3.9646    3.2899   -1.4936 C   0  0  0  0  0  0  0  0  0  0  0  0
    4.8694    2.6832   -1.2788 H   0  0  0  0  0  0  0  0  0  0  0  0
    4.1624    4.3542   -1.2489 H   0  0  0  0  0  0  0  0  0  0  0  0
    3.7075    3.2052   -2.5701 H   0  0  0  0  0  0  0  0  0  0  0  0
  1  2  1  0  0  0  0
  3  1  1  0  0  0  0
  5  1  1  0  0  0  0
  5  8  1  0  0  0  0
  6  4  1  6  0  0  0
  6  7  1  0  0  0  0
  6  5  1  0  0  0  0
  7 10  1  0  0  0  0
  8  9  1  0  0  0  0
 10 11  1  0  0  0  0
 10  8  2  0  0  0  0
 12 15  1  0  0  0  0
 12  7  1  0  0  0  0
 13 12  1  0  0  0  0
 14 12  1  0  0  0  0
 17  1  1  0  0  0  0
 18 16  2  0  0  0  0
 18 17  1  0  0  0  0
 19 22  1  0  0  0  0
 19 18  1  0  0  0  0
 20 21  1  0  0  0  0
 20 17  1  0  0  0  0
 22 20  2  0  0  0  0
 23 22  1  0  0  0  0
 24 25  1  0  0  0  0
 24 26  1  0  0  0  0
 24 19  1  0  0  0  0
 27 24  1  0  0  0  0
M  END
