1
 OpenBabel05122313063D

 30 31  0  0  0  0  0  0  0  0999 V2000
    0.7248   -1.7157   -0.3458 S   0  0  0  0  0  1  0  0  0  0  0  0
    0.5400    1.6937   -0.7329 S   0  0  0  0  0  0  0  0  0  0  0  0
   -0.7320   -0.7133   -0.2407 C   0  0  0  0  0  0  0  0  0  0  0  0
   -0.8471    0.6614   -0.2884 C   0  0  0  0  0  0  0  0  0  0  0  0
   -1.9523   -1.5736   -0.1661 C   0  0  0  0  0  0  0  0  0  0  0  0
   -3.0158   -1.3841   -1.0761 C   0  0  0  0  0  0  0  0  0  0  0  0
   -4.1644   -2.1826   -1.0065 C   0  0  0  0  0  0  0  0  0  0  0  0
   -4.2712   -3.1849   -0.0287 C   0  0  0  0  0  0  0  0  0  0  0  0
   -3.2128   -3.3920    0.8712 C   0  0  0  0  0  0  0  0  0  0  0  0
   -2.0584   -2.6011    0.7976 C   0  0  0  0  0  0  0  0  0  0  0  0
   -2.1134    1.3924   -0.0251 C   0  0  0  0  0  0  0  0  0  0  0  0
   -2.9142    1.0706    1.0964 C   0  0  0  0  0  0  0  0  0  0  0  0
   -4.1034    1.7642    1.3528 C   0  0  0  0  0  0  0  0  0  0  0  0
   -4.5159    2.8054    0.5050 C   0  0  0  0  0  0  0  0  0  0  0  0
   -3.7198    3.1511   -0.5993 C   0  0  0  0  0  0  0  0  0  0  0  0
   -2.5301    2.4577   -0.8586 C   0  0  0  0  0  0  0  0  0  0  0  0
    0.5679    2.9035    0.6367 C   0  0  0  0  0  0  0  0  0  0  0  0
   -2.9317   -0.5986   -1.8408 H   0  0  0  0  0  0  0  0  0  0  0  0
   -4.9827   -2.0227   -1.7251 H   0  0  0  0  0  0  0  0  0  0  0  0
   -5.1753   -3.8101    0.0269 H   0  0  0  0  0  0  0  0  0  0  0  0
   -3.2858   -4.1793    1.6370 H   0  0  0  0  0  0  0  0  0  0  0  0
   -1.2217   -2.7665    1.4925 H   0  0  0  0  0  0  0  0  0  0  0  0
   -2.5928    0.2619    1.7683 H   0  0  0  0  0  0  0  0  0  0  0  0
   -4.7110    1.4933    2.2298 H   0  0  0  0  0  0  0  0  0  0  0  0
   -5.4493    3.3513    0.7093 H   0  0  0  0  0  0  0  0  0  0  0  0
   -4.0301    3.9681   -1.2689 H   0  0  0  0  0  0  0  0  0  0  0  0
   -1.9048    2.7303   -1.7228 H   0  0  0  0  0  0  0  0  0  0  0  0
   -0.3879    3.4613    0.6712 H   0  0  0  0  0  0  0  0  0  0  0  0
    0.7491    2.4025    1.6066 H   0  0  0  0  0  0  0  0  0  0  0  0
    1.3969    3.6031    0.4165 H   0  0  0  0  0  0  0  0  0  0  0  0
  1  3  1  0  0  0  0
  2  4  1  0  0  0  0
  2 17  1  0  0  0  0
  3  5  1  0  0  0  0
  4  3  2  0  0  0  0
  4 11  1  0  0  0  0
  5 10  1  0  0  0  0
  6  7  1  0  0  0  0
  6  5  2  0  0  0  0
  7  8  2  0  0  0  0
  8 20  1  0  0  0  0
  8  9  1  0  0  0  0
  9 21  1  0  0  0  0
 10  9  2  0  0  0  0
 10 22  1  0  0  0  0
 11 12  1  0  0  0  0
 12 13  2  0  0  0  0
 12 23  1  0  0  0  0
 13 24  1  0  0  0  0
 14 25  1  0  0  0  0
 14 13  1  0  0  0  0
 15 14  2  0  0  0  0
 16 15  1  0  0  0  0
 16 11  2  0  0  0  0
 17 28  1  0  0  0  0
 17 29  1  0  0  0  0
 18  6  1  0  0  0  0
 19  7  1  0  0  0  0
 26 15  1  0  0  0  0
 27 16  1  0  0  0  0
 30 17  1  0  0  0  0
M  END
