3
 OpenBabel05122313063D

 19 18  0  0  0  0  0  0  0  0999 V2000
   -1.5506   -3.2513   -1.4843 S   0  0  0  0  0  1  0  0  0  0  0  0
    0.0404   -3.1419   -0.3599 P   0  0  0  0  0  4  0  0  0  0  0  0
    0.1036   -1.8815    1.3021 S   0  0  0  0  0  1  0  0  0  0  0  0
    0.3788   -4.6191    0.2808 O   0  0  0  0  0  0  0  0  0  0  0  0
    1.5769   -4.8405    1.0557 C   0  0  0  0  0  0  0  0  0  0  0  0
    2.0964   -5.7022    0.5845 H   0  0  0  0  0  0  0  0  0  0  0  0
    2.2499   -3.9602    0.9813 H   0  0  0  0  0  0  0  0  0  0  0  0
    1.2230   -5.1351    2.5020 C   0  0  0  0  0  0  0  0  0  0  0  0
    0.5245   -5.9928    2.5684 H   0  0  0  0  0  0  0  0  0  0  0  0
    2.1369   -5.3818    3.0803 H   0  0  0  0  0  0  0  0  0  0  0  0
    0.7409   -4.2538    2.9704 H   0  0  0  0  0  0  0  0  0  0  0  0
    1.4346   -2.7480   -1.1779 O   0  0  0  0  0  0  0  0  0  0  0  0
    1.4898   -2.7749   -2.6212 C   0  0  0  0  0  0  0  0  0  0  0  0
    0.7348   -3.4924   -3.0078 H   0  0  0  0  0  0  0  0  0  0  0  0
    2.5005   -3.1618   -2.8695 H   0  0  0  0  0  0  0  0  0  0  0  0
    1.2616   -1.3920   -3.2055 C   0  0  0  0  0  0  0  0  0  0  0  0
    2.0007   -0.6629   -2.8182 H   0  0  0  0  0  0  0  0  0  0  0  0
    1.3492   -1.4261   -4.3107 H   0  0  0  0  0  0  0  0  0  0  0  0
    0.2459   -1.0333   -2.9461 H   0  0  0  0  0  0  0  0  0  0  0  0
  1  2  1  0  0  0  0
  2  4  1  0  0  0  0
  2  3  1  0  0  0  0
  4  5  1  0  0  0  0
  5  8  1  0  0  0  0
  6  5  1  0  0  0  0
  7  5  1  0  0  0  0
  8  9  1  0  0  0  0
  8 11  1  0  0  0  0
  8 10  1  0  0  0  0
 12  2  1  0  0  0  0
 13 12  1  0  0  0  0
 14 13  1  0  0  0  0
 15 13  1  0  0  0  0
 16 19  1  0  0  0  0
 16 17  1  0  0  0  0
 16 13  1  0  0  0  0
 18 16  1  0  0  0  0
M  END
