1
 OpenBabel05122313063D

 30 30  0  0  0  0  0  0  0  0999 V2000
   -0.2597   -0.1619   -0.0419 S   0  0  0  0  0  0  0  0  0  0  0  0
    4.0451   -2.4701   -0.2419 S   0  0  0  0  0  0  0  0  0  0  0  0
    3.1757    2.2625    0.5776 S   0  0  0  0  0  0  0  0  0  0  0  0
    0.0973   -1.6646    0.9874 C   0  0  0  0  0  0  0  0  0  0  0  0
   -0.3569   -1.5075    1.9859 H   0  0  0  0  0  0  0  0  0  0  0  0
   -0.4478   -2.4853    0.4763 H   0  0  0  0  0  0  0  0  0  0  0  0
    1.5988   -1.9402    1.0595 C   0  0  0  0  0  0  0  0  0  0  0  0
    2.1161   -1.0706    1.5181 H   0  0  0  0  0  0  0  0  0  0  0  0
    1.7461   -2.7825    1.7686 H   0  0  0  0  0  0  0  0  0  0  0  0
    2.2315   -2.2801   -0.2924 C   0  0  0  0  0  0  0  0  0  0  0  0
    1.9596   -1.5175   -1.0550 H   0  0  0  0  0  0  0  0  0  0  0  0
    1.8531   -3.2523   -0.6707 H   0  0  0  0  0  0  0  0  0  0  0  0
    4.5468   -0.7405    0.0802 C   0  0  0  0  0  0  0  0  0  0  0  0
    4.0544   -0.3747    1.0066 H   0  0  0  0  0  0  0  0  0  0  0  0
    5.6301   -0.8094    0.3093 H   0  0  0  0  0  0  0  0  0  0  0  0
    4.2919    0.2345   -1.0709 C   0  0  0  0  0  0  0  0  0  0  0  0
    5.0001    0.0296   -1.9012 H   0  0  0  0  0  0  0  0  0  0  0  0
    3.2787    0.0712   -1.4988 H   0  0  0  0  0  0  0  0  0  0  0  0
    4.4248    1.6999   -0.6459 C   0  0  0  0  0  0  0  0  0  0  0  0
    4.3840    2.3843   -1.5176 H   0  0  0  0  0  0  0  0  0  0  0  0
    5.3959    1.8857   -0.1421 H   0  0  0  0  0  0  0  0  0  0  0  0
    1.7108    2.4753   -0.5082 C   0  0  0  0  0  0  0  0  0  0  0  0
    1.8065    3.4198   -1.0813 H   0  0  0  0  0  0  0  0  0  0  0  0
    1.6710    1.6400   -1.2398 H   0  0  0  0  0  0  0  0  0  0  0  0
    0.4337    2.5122    0.3378 C   0  0  0  0  0  0  0  0  0  0  0  0
   -0.4329    2.7831   -0.3044 H   0  0  0  0  0  0  0  0  0  0  0  0
    0.5103    3.3254    1.0921 H   0  0  0  0  0  0  0  0  0  0  0  0
    0.1607    1.2240    1.1124 C   0  0  0  0  0  0  0  0  0  0  0  0
   -0.6462    1.3300    1.8623 H   0  0  0  0  0  0  0  0  0  0  0  0
    1.0911    0.8887    1.6175 H   0  0  0  0  0  0  0  0  0  0  0  0
  1  4  1  0  0  0  0
  1 28  1  0  0  0  0
  2 13  1  0  0  0  0
  4  7  1  0  0  0  0
  4  5  1  0  0  0  0
  6  4  1  0  0  0  0
  7  8  1  0  0  0  0
  7  9  1  0  0  0  0
 10  2  1  0  0  0  0
 10  7  1  0  0  0  0
 11 10  1  0  0  0  0
 12 10  1  0  0  0  0
 13 15  1  0  0  0  0
 13 14  1  0  0  0  0
 16 19  1  0  0  0  0
 16 13  1  0  0  0  0
 17 16  1  0  0  0  0
 18 16  1  0  0  0  0
 19 21  1  0  0  0  0
 19  3  1  0  0  0  0
 20 19  1  0  0  0  0
 22 25  1  0  0  0  0
 22  3  1  0  0  0  0
 23 22  1  0  0  0  0
 24 22  1  0  0  0  0
 25 27  1  0  0  0  0
 25 28  1  0  0  0  0
 26 25  1  0  0  0  0
 28 30  1  0  0  0  0
 28 29  1  0  0  0  0
M  END
