1
 OpenBabel05122313063D

 40 41  0  0  0  0  0  0  0  0999 V2000
    1.9140   -1.3427   -0.1576 S   0  0  0  0  0  1  0  0  0  0  0  0
    4.4806   -0.5853   -0.1587 N   0  0  0  0  0  0  0  0  0  0  0  0
    5.1666    0.1754   -0.0691 H   0  0  0  0  0  0  0  0  0  0  0  0
    2.9497    1.1277   -0.4546 N   0  0  0  0  0  0  0  0  0  0  0  0
    1.9462    1.4196   -0.3936 H   0  0  0  0  0  0  0  0  0  0  0  0
    5.9089    4.1203   -0.1536 C   0  0  0  0  0  0  0  0  0  0  0  0
    6.6796    4.9019   -0.0719 H   0  0  0  0  0  0  0  0  0  0  0  0
    3.9541    2.1380   -0.3604 C   0  0  0  0  0  0  0  0  0  0  0  0
    5.2230   -2.1839    1.5334 C   0  0  0  0  0  0  0  0  0  0  0  0
    4.9085   -1.9082    0.1820 C   0  0  0  0  0  0  0  0  0  0  0  0
    3.1805   -0.1914   -0.2646 C   0  0  0  0  0  3  0  0  0  0  0  0
    4.7981    2.3880   -1.4713 C   0  0  0  0  0  0  0  0  0  0  0  0
    5.0340   -2.8843   -0.8335 C   0  0  0  0  0  0  0  0  0  0  0  0
    4.0602    2.8739    0.8478 C   0  0  0  0  0  0  0  0  0  0  0  0
    5.7833    3.3863   -1.3405 C   0  0  0  0  0  0  0  0  0  0  0  0
    6.4471    3.5971   -2.1934 H   0  0  0  0  0  0  0  0  0  0  0  0
    5.4997   -4.1601   -0.4643 C   0  0  0  0  0  0  0  0  0  0  0  0
    5.6001   -4.9354   -1.2396 H   0  0  0  0  0  0  0  0  0  0  0  0
    5.6950   -3.4690    1.8565 C   0  0  0  0  0  0  0  0  0  0  0  0
    5.9426   -3.7015    2.9039 H   0  0  0  0  0  0  0  0  0  0  0  0
    5.0046   -1.1339    2.5915 C   0  0  0  0  0  0  0  0  0  0  0  0
    5.5714   -0.2010    2.3882 H   0  0  0  0  0  0  0  0  0  0  0  0
    5.3061   -1.5027    3.5899 H   0  0  0  0  0  0  0  0  0  0  0  0
    3.9305   -0.8535    2.6370 H   0  0  0  0  0  0  0  0  0  0  0  0
    5.0510    3.8699    0.9270 C   0  0  0  0  0  0  0  0  0  0  0  0
    5.1480    4.4536    1.8557 H   0  0  0  0  0  0  0  0  0  0  0  0
    3.1340    2.5760    1.9972 C   0  0  0  0  0  0  0  0  0  0  0  0
    2.0695    2.6500    1.6895 H   0  0  0  0  0  0  0  0  0  0  0  0
    3.3124    3.2654    2.8437 H   0  0  0  0  0  0  0  0  0  0  0  0
    3.2758    1.5367    2.3624 H   0  0  0  0  0  0  0  0  0  0  0  0
    4.6220    1.6164   -2.7527 C   0  0  0  0  0  0  0  0  0  0  0  0
    4.9322    0.5564   -2.6364 H   0  0  0  0  0  0  0  0  0  0  0  0
    5.2194    2.0583   -3.5721 H   0  0  0  0  0  0  0  0  0  0  0  0
    3.5567    1.5922   -3.0579 H   0  0  0  0  0  0  0  0  0  0  0  0
    5.8337   -4.4498    0.8653 C   0  0  0  0  0  0  0  0  0  0  0  0
    6.1999   -5.4526    1.1330 H   0  0  0  0  0  0  0  0  0  0  0  0
    4.6562   -2.5675   -2.2548 C   0  0  0  0  0  0  0  0  0  0  0  0
    3.5787   -2.3052   -2.3172 H   0  0  0  0  0  0  0  0  0  0  0  0
    4.8469   -3.4295   -2.9214 H   0  0  0  0  0  0  0  0  0  0  0  0
    5.2241   -1.6969   -2.6442 H   0  0  0  0  0  0  0  0  0  0  0  0
  2  3  1  0  0  0  0
  2 10  1  0  0  0  0
  4  5  1  0  0  0  0
  4  8  1  0  0  0  0
  4 11  1  0  0  0  0
  6  7  1  0  0  0  0
  6 25  1  0  0  0  0
  8 14  1  0  0  0  0
  9 19  1  0  0  0  0
  9 21  1  0  0  0  0
 10  9  2  0  0  0  0
 11  2  1  0  0  0  0
 11  1  1  0  0  0  0
 12 15  1  0  0  0  0
 12  8  2  0  0  0  0
 13 17  2  0  0  0  0
 13 10  1  0  0  0  0
 14 25  2  0  0  0  0
 14 27  1  0  0  0  0
 15  6  2  0  0  0  0
 16 15  1  0  0  0  0
 17 35  1  0  0  0  0
 18 17  1  0  0  0  0
 19 20  1  0  0  0  0
 21 24  1  0  0  0  0
 21 23  1  0  0  0  0
 22 21  1  0  0  0  0
 25 26  1  0  0  0  0
 27 30  1  0  0  0  0
 27 29  1  0  0  0  0
 28 27  1  0  0  0  0
 31 32  1  0  0  0  0
 31 12  1  0  0  0  0
 33 31  1  0  0  0  0
 34 31  1  0  0  0  0
 35 36  1  0  0  0  0
 35 19  2  0  0  0  0
 37 13  1  0  0  0  0
 38 37  1  0  0  0  0
 39 37  1  0  0  0  0
 40 37  1  0  0  0  0
M  END
