1
 OpenBabel05122313063D

 12 13  0  0  1  0  0  0  0  0999 V2000
    1.5359    0.6098    1.8049 S   0  0  0  0  0  1  0  0  0  0  0  0
    2.5698   -0.7980    1.5825 C   0  0  0  0  0  0  0  0  0  0  0  0
    2.2701   -1.7722    0.8763 O   0  0  0  0  0  0  0  0  0  0  0  0
    3.9053   -0.7466    2.2539 C   0  0  0  0  0  0  0  0  0  0  0  0
    4.4319    0.3085    3.0614 C   0  0  0  0  0  0  0  0  0  0  0  0
    5.7298   -0.0099    3.4279 C   0  0  2  0  0  3  0  0  0  0  0  0
    6.8931   -0.7137    3.5140 C   0  0  0  0  0  3  0  0  0  0  0  0
    6.0285   -1.4454    2.7584 C   0  0  2  0  0  3  0  0  0  0  0  0
    4.8665   -1.7890    2.0855 C   0  0  0  0  0  3  0  0  0  0  0  0
    3.8848    1.2226    3.3263 H   0  0  0  0  0  0  0  0  0  0  0  0
    7.9122   -0.6995    3.9376 H   0  0  0  0  0  0  0  0  0  0  0  0
    4.6830   -2.6958    1.4965 H   0  0  0  0  0  0  0  0  0  0  0  0
  2  1  1  0  0  0  0
  2  4  1  0  0  0  0
  3  2  2  0  0  0  0
  4  5  2  0  0  0  0
  5 10  1  0  0  0  0
  6  5  1  6  0  0  0
  6  7  1  0  0  0  0
  7 11  1  0  0  0  0
  8  9  1  6  0  0  0
  8  6  1  0  0  0  0
  8  7  1  0  0  0  0
  9  4  1  0  0  0  0
 12  9  1  0  0  0  0
M  END
