1
 OpenBabel05122313063D

 29 31  0  0  0  0  0  0  0  0999 V2000
    1.6586   -0.0916   -1.6655 S   0  0  0  0  0  0  0  0  0  0  0  0
    3.8176   -0.2169    0.5250 N   0  0  0  0  0  0  0  0  0  0  0  0
    2.5453   -1.5394   -1.1261 C   0  0  0  0  0  0  0  0  0  0  0  0
    3.4461   -1.4487   -0.0320 C   0  0  0  0  0  0  0  0  0  0  0  0
    3.9485   -2.6712    0.4801 C   0  0  0  0  0  0  0  0  0  0  0  0
    4.6456   -2.6645    1.3264 H   0  0  0  0  0  0  0  0  0  0  0  0
    3.5863   -3.8991   -0.0861 C   0  0  0  0  0  0  0  0  0  0  0  0
    3.9996   -4.8242    0.3431 H   0  0  0  0  0  0  0  0  0  0  0  0
    2.7203   -3.9595   -1.1886 C   0  0  0  0  0  0  0  0  0  0  0  0
    2.4374   -4.9252   -1.6312 H   0  0  0  0  0  0  0  0  0  0  0  0
    2.1959   -2.7689   -1.7042 C   0  0  0  0  0  0  0  0  0  0  0  0
    1.4599   -2.7768   -2.5206 H   0  0  0  0  0  0  0  0  0  0  0  0
    2.8998    1.1270   -1.3183 C   0  0  0  0  0  0  0  0  0  0  0  0
    3.7620    0.9782   -0.2029 C   0  0  0  0  0  0  0  0  0  0  0  0
    4.5599    2.0973    0.1405 C   0  0  0  0  0  0  0  0  0  0  0  0
    5.2299    2.0486    1.0066 H   0  0  0  0  0  0  0  0  0  0  0  0
    4.5151    3.2766   -0.6103 C   0  0  0  0  0  0  0  0  0  0  0  0
    5.1505    4.1227   -0.3084 H   0  0  0  0  0  0  0  0  0  0  0  0
    3.6823    3.3889   -1.7349 C   0  0  0  0  0  0  0  0  0  0  0  0
    3.6553    4.3150   -2.3267 H   0  0  0  0  0  0  0  0  0  0  0  0
    2.8679    2.3050   -2.0796 C   0  0  0  0  0  0  0  0  0  0  0  0
    2.1701    2.3687   -2.9285 H   0  0  0  0  0  0  0  0  0  0  0  0
    4.3412   -0.1827    1.8947 C   0  0  0  0  0  0  0  0  0  0  0  0
    3.8093   -0.9729    2.4608 H   0  0  0  0  0  0  0  0  0  0  0  0
    3.9974    0.7738    2.3369 H   0  0  0  0  0  0  0  0  0  0  0  0
    5.8571   -0.3510    2.0418 C   0  0  0  0  0  0  0  0  0  0  0  0
    6.2099   -1.3222    1.6434 H   0  0  0  0  0  0  0  0  0  0  0  0
    6.1355   -0.3021    3.1138 H   0  0  0  0  0  0  0  0  0  0  0  0
    6.4202    0.4393    1.5089 H   0  0  0  0  0  0  0  0  0  0  0  0
  1 13  1  0  0  0  0
  1  3  1  0  0  0  0
  2 23  1  0  0  0  0
  3  4  1  0  0  0  0
  4  5  2  0  0  0  0
  4  2  1  0  0  0  0
  5  6  1  0  0  0  0
  7  8  1  0  0  0  0
  7  5  1  0  0  0  0
  9  7  2  0  0  0  0
 10  9  1  0  0  0  0
 11  9  1  0  0  0  0
 11  3  2  0  0  0  0
 12 11  1  0  0  0  0
 13 14  1  0  0  0  0
 14 15  2  0  0  0  0
 14  2  1  0  0  0  0
 15 16  1  0  0  0  0
 17 18  1  0  0  0  0
 17 15  1  0  0  0  0
 19 17  2  0  0  0  0
 20 19  1  0  0  0  0
 21 19  1  0  0  0  0
 21 13  2  0  0  0  0
 22 21  1  0  0  0  0
 23 26  1  0  0  0  0
 23 25  1  0  0  0  0
 23 24  1  0  0  0  0
 26 28  1  0  0  0  0
 27 26  1  0  0  0  0
 29 26  1  0  0  0  0
M  END
