1
 OpenBabel05122313063D

 10  9  0  0  0  0  0  0  0  0999 V2000
    1.1780   -0.5831   -0.7689 S   0  0  0  0  0  1  0  0  0  0  0  0
    5.7401   -1.1118   -0.3877 C   0  0  0  0  0  0  0  0  0  0  0  0
    4.3964   -0.9301   -0.4300 C   0  0  0  0  0  0  0  0  0  0  0  0
    3.5050   -1.0294    0.7062 C   0  0  0  0  0  0  0  0  0  0  0  0
    2.1435   -0.8770    0.6675 C   0  0  0  0  0  0  0  0  0  0  0  0
    6.2537   -1.3702    0.5536 H   0  0  0  0  0  0  0  0  0  0  0  0
    6.3636   -1.0111   -1.2888 H   0  0  0  0  0  0  0  0  0  0  0  0
    3.9172   -0.6811   -1.3944 H   0  0  0  0  0  0  0  0  0  0  0  0
    3.9605   -1.2449    1.6888 H   0  0  0  0  0  0  0  0  0  0  0  0
    1.5756   -0.9464    1.6117 H   0  0  0  0  0  0  0  0  0  0  0  0
  1  5  1  0  0  0  0
  2  6  1  0  0  0  0
  3  2  2  0  0  0  0
  3  4  1  0  0  0  0
  4  9  1  0  0  0  0
  5  4  2  0  0  0  0
  5 10  1  0  0  0  0
  7  2  1  0  0  0  0
  8  3  1  0  0  0  0
M  END
