1
 OpenBabel05122313063D

 11 11  0  0  0  0  0  0  0  0999 V2000
    0.2736   -1.5111    2.5214 S   0  0  0  0  0  0  0  0  0  0  0  0
    1.9882   -1.1190    3.1338 C   0  0  0  0  0  0  0  0  0  0  0  0
    2.3394   -0.2111    2.5992 H   0  0  0  0  0  0  0  0  0  0  0  0
    1.9283   -0.8870    4.2183 H   0  0  0  0  0  0  0  0  0  0  0  0
    2.8086   -2.3338    2.8273 C   0  0  0  0  0  0  0  0  0  0  0  0
    3.8914   -2.3199    3.0265 H   0  0  0  0  0  0  0  0  0  0  0  0
    2.1733   -3.3866    2.2839 C   0  0  0  0  0  0  0  0  0  0  0  0
    2.6864   -4.3186    1.9994 H   0  0  0  0  0  0  0  0  0  0  0  0
    0.7004   -3.2558    2.0458 C   0  0  0  0  0  0  0  0  0  0  0  0
    0.0889   -3.9361    2.6755 H   0  0  0  0  0  0  0  0  0  0  0  0
    0.4066   -3.4134    0.9860 H   0  0  0  0  0  0  0  0  0  0  0  0
  1  2  1  0  0  0  0
  2  4  1  0  0  0  0
  3  2  1  0  0  0  0
  5  6  1  0  0  0  0
  5  2  1  0  0  0  0
  7  5  2  0  0  0  0
  8  7  1  0  0  0  0
  9  7  1  0  0  0  0
  9  1  1  0  0  0  0
  9 10  1  0  0  0  0
 11  9  1  0  0  0  0
M  END
