1
 OpenBabel05122313063D

 48 50  0  0  1  0  0  0  0  0999 V2000
    0.4589    1.2576    0.0012 S   0  0  0  0  0  1  0  0  0  0  0  0
   -0.3638   -1.4013    0.0007 N   0  0  0  0  0  0  0  0  0  0  0  0
    1.8129   -1.1214    0.0011 N   0  0  0  0  0  0  0  0  0  0  0  0
    0.6178   -0.4379    0.0010 C   0  0  1  0  0  3  0  0  0  0  0  0
    0.2177   -2.6686    0.0005 C   0  0  0  0  0  0  0  0  0  0  0  0
   -0.3967   -3.5728    0.0003 H   0  0  0  0  0  0  0  0  0  0  0  0
    1.5751   -2.4949    0.0008 C   0  0  0  0  0  0  0  0  0  0  0  0
    2.3983   -3.2145    0.0009 H   0  0  0  0  0  0  0  0  0  0  0  0
    3.1042   -0.4938    0.0014 C   0  0  0  0  0  0  0  0  0  0  0  0
    3.7074   -0.1866   -1.2372 C   0  0  0  0  0  0  0  0  0  0  0  0
    4.9765    0.4145   -1.2094 C   0  0  0  0  0  0  0  0  0  0  0  0
    5.4639    0.6659   -2.1650 H   0  0  0  0  0  0  0  0  0  0  0  0
    5.6309    0.7154    0.0012 C   0  0  0  0  0  0  0  0  0  0  0  0
    4.9766    0.4160    1.2107 C   0  0  0  0  0  0  0  0  0  0  0  0
    5.4641    0.6682    2.1659 H   0  0  0  0  0  0  0  0  0  0  0  0
    3.7062   -0.1854    1.2388 C   0  0  0  0  0  0  0  0  0  0  0  0
    2.9784   -0.4511   -2.5281 C   0  0  0  0  0  0  0  0  0  0  0  0
    2.0623    0.1752   -2.5849 H   0  0  0  0  0  0  0  0  0  0  0  0
    2.6509   -1.5077   -2.6126 H   0  0  0  0  0  0  0  0  0  0  0  0
    3.6124   -0.2141   -3.4027 H   0  0  0  0  0  0  0  0  0  0  0  0
    7.0063    1.3330   -0.0041 C   0  0  0  0  0  0  0  0  0  0  0  0
    7.2378    1.8256    0.9599 H   0  0  0  0  0  0  0  0  0  0  0  0
    7.1113    2.0844   -0.8118 H   0  0  0  0  0  0  0  0  0  0  0  0
    7.7865    0.5608   -0.1773 H   0  0  0  0  0  0  0  0  0  0  0  0
    2.9776   -0.4475    2.5304 C   0  0  0  0  0  0  0  0  0  0  0  0
    3.6132   -0.2130    3.4044 H   0  0  0  0  0  0  0  0  0  0  0  0
    2.0638    0.1822    2.5881 H   0  0  0  0  0  0  0  0  0  0  0  0
    2.6463   -1.5029    2.6150 H   0  0  0  0  0  0  0  0  0  0  0  0
   -1.7789   -1.1453   -0.0001 C   0  0  0  0  0  0  0  0  0  0  0  0
   -2.4528   -1.0677   -1.2417 C   0  0  0  0  0  0  0  0  0  0  0  0
   -3.8420   -0.8792   -1.2116 C   0  0  0  0  0  0  0  0  0  0  0  0
   -4.3827   -0.7721   -2.1647 H   0  0  0  0  0  0  0  0  0  0  0  0
   -4.5512   -0.7653   -0.0015 C   0  0  0  0  0  0  0  0  0  0  0  0
   -3.8433   -0.8798    1.2094 C   0  0  0  0  0  0  0  0  0  0  0  0
   -4.3850   -0.7731    2.1619 H   0  0  0  0  0  0  0  0  0  0  0  0
   -2.4541   -1.0682    1.2409 C   0  0  0  0  0  0  0  0  0  0  0  0
   -1.6795   -1.1008   -2.5330 C   0  0  0  0  0  0  0  0  0  0  0  0
   -1.0272   -0.2033   -2.6039 H   0  0  0  0  0  0  0  0  0  0  0  0
   -1.0194   -1.9897   -2.6079 H   0  0  0  0  0  0  0  0  0  0  0  0
   -2.3592   -1.0974   -3.4051 H   0  0  0  0  0  0  0  0  0  0  0  0
   -6.0128   -0.4164   -0.0022 C   0  0  0  0  0  0  0  0  0  0  0  0
   -6.0923    0.6922   -0.0022 H   0  0  0  0  0  0  0  0  0  0  0  0
   -6.5336   -0.7962    0.8985 H   0  0  0  0  0  0  0  0  0  0  0  0
   -6.5327   -0.7961   -0.9034 H   0  0  0  0  0  0  0  0  0  0  0  0
   -1.6821   -1.1023    2.5330 C   0  0  0  0  0  0  0  0  0  0  0  0
   -1.0244   -1.9928    2.6091 H   0  0  0  0  0  0  0  0  0  0  0  0
   -1.0277   -0.2064    2.6039 H   0  0  0  0  0  0  0  0  0  0  0  0
   -2.3628   -1.0966    3.4044 H   0  0  0  0  0  0  0  0  0  0  0  0
  2  4  1  0  0  0  0
  3  9  1  0  0  0  0
  4  3  1  0  0  0  0
  4  1  1  6  0  0  0
  5  2  1  0  0  0  0
  5  7  2  0  0  0  0
  6  5  1  0  0  0  0
  7  8  1  0  0  0  0
  7  3  1  0  0  0  0
  9 16  1  0  0  0  0
 10 11  1  0  0  0  0
 10  9  2  0  0  0  0
 11 13  2  0  0  0  0
 12 11  1  0  0  0  0
 13 14  1  0  0  0  0
 14 16  2  0  0  0  0
 14 15  1  0  0  0  0
 16 25  1  0  0  0  0
 17 10  1  0  0  0  0
 18 17  1  0  0  0  0
 19 17  1  0  0  0  0
 20 17  1  0  0  0  0
 21 13  1  0  0  0  0
 21 22  1  0  0  0  0
 23 21  1  0  0  0  0
 24 21  1  0  0  0  0
 25 27  1  0  0  0  0
 25 28  1  0  0  0  0
 25 26  1  0  0  0  0
 29  2  1  0  0  0  0
 29 36  1  0  0  0  0
 30 31  1  0  0  0  0
 30 29  2  0  0  0  0
 31 33  2  0  0  0  0
 32 31  1  0  0  0  0
 33 34  1  0  0  0  0
 34 36  2  0  0  0  0
 34 35  1  0  0  0  0
 36 45  1  0  0  0  0
 37 30  1  0  0  0  0
 38 37  1  0  0  0  0
 39 37  1  0  0  0  0
 40 37  1  0  0  0  0
 41 33  1  0  0  0  0
 41 43  1  0  0  0  0
 42 41  1  0  0  0  0
 44 41  1  0  0  0  0
 45 47  1  0  0  0  0
 45 46  1  0  0  0  0
 45 48  1  0  0  0  0
M  END
