1
 OpenBabel05122313063D

 16 16  0  0  0  0  0  0  0  0999 V2000
   -2.4332    1.1555   -2.2607 S   0  0  0  0  0  1  0  0  0  0  0  0
   -2.4122   -2.7316    0.0965 O   0  0  0  0  0  0  0  0  0  0  0  0
   -2.5290   -1.9335   -2.0387 N   0  0  0  0  0  0  0  0  0  0  0  0
   -1.9676   -2.7224   -2.3624 H   0  0  0  0  0  0  0  0  0  0  0  0
   -2.5802   -1.0738   -2.6103 H   0  0  0  0  0  0  0  0  0  0  0  0
   -3.4498   -0.5886   -0.2091 C   0  0  0  0  0  0  0  0  0  0  0  0
   -3.3954    0.7110   -0.7972 C   0  0  0  0  0  0  0  0  0  0  0  0
   -4.1173    1.7592   -0.1806 C   0  0  0  0  0  0  0  0  0  0  0  0
   -4.0590    2.7600   -0.6334 H   0  0  0  0  0  0  0  0  0  0  0  0
   -4.8670    1.5492    0.9828 C   0  0  0  0  0  0  0  0  0  0  0  0
   -5.4171    2.3892    1.4348 H   0  0  0  0  0  0  0  0  0  0  0  0
   -4.8997    0.2758    1.5755 C   0  0  0  0  0  0  0  0  0  0  0  0
   -5.4740    0.1013    2.4977 H   0  0  0  0  0  0  0  0  0  0  0  0
   -4.1882   -0.7702    0.9803 C   0  0  0  0  0  0  0  0  0  0  0  0
   -4.1725   -1.7772    1.4234 H   0  0  0  0  0  0  0  0  0  0  0  0
   -2.7350   -1.8358   -0.6968 C   0  0  0  0  0  0  0  0  0  0  0  0
  1  7  1  0  0  0  0
  3 16  1  0  0  0  0
  4  3  1  0  0  0  0
  5  3  1  0  0  0  0
  6 14  1  0  0  0  0
  7  6  2  0  0  0  0
  7  8  1  0  0  0  0
  8 10  2  0  0  0  0
  9  8  1  0  0  0  0
 10 11  1  0  0  0  0
 10 12  1  0  0  0  0
 12 13  1  0  0  0  0
 14 15  1  0  0  0  0
 14 12  2  0  0  0  0
 16  6  1  0  0  0  0
 16  2  2  0  0  0  0
M  END
