1
 OpenBabel05122313063D

 26 27  0  0  0  0  0  0  0  0999 V2000
    1.7803    0.7249   -0.8376 S   0  0  0  0  0  1  0  0  0  0  0  0
    4.3667   -0.8692   -0.7262 N   0  0  0  0  0  0  0  0  0  0  0  0
    1.9043   -1.0089   -0.5181 C   0  0  0  0  0  0  0  0  0  0  0  0
    3.1874   -1.6265   -0.4608 C   0  0  0  0  0  0  0  0  0  0  0  0
    3.3153   -2.9906   -0.1409 C   0  0  0  0  0  0  0  0  0  0  0  0
    4.3270   -3.4229   -0.1155 H   0  0  0  0  0  0  0  0  0  0  0  0
    2.1860   -3.7786    0.1234 C   0  0  0  0  0  0  0  0  0  0  0  0
    2.2981   -4.8459    0.3663 H   0  0  0  0  0  0  0  0  0  0  0  0
    0.9116   -3.1911    0.0322 C   0  0  0  0  0  0  0  0  0  0  0  0
    0.0069   -3.7952    0.2004 H   0  0  0  0  0  0  0  0  0  0  0  0
    0.7748   -1.8365   -0.2916 C   0  0  0  0  0  0  0  0  0  0  0  0
   -0.2299   -1.3963   -0.3735 H   0  0  0  0  0  0  0  0  0  0  0  0
    5.2843   -0.4383    0.2305 C   0  0  0  0  0  0  0  0  0  0  0  0
    6.2970    0.2340   -0.4457 C   0  0  0  0  0  0  0  0  0  0  0  0
    7.1684    0.7002    0.0294 H   0  0  0  0  0  0  0  0  0  0  0  0
    5.9850    0.2076   -1.8392 C   0  0  0  0  0  0  0  0  0  0  0  0
    6.5741    0.6375   -2.6577 H   0  0  0  0  0  0  0  0  0  0  0  0
    4.7848   -0.4773   -1.9963 C   0  0  0  0  0  0  0  0  0  0  0  0
    3.9987   -0.8093   -3.2208 C   0  0  0  0  0  0  0  0  0  0  0  0
    3.0038   -0.3135   -3.2117 H   0  0  0  0  0  0  0  0  0  0  0  0
    3.8197   -1.9011   -3.3210 H   0  0  0  0  0  0  0  0  0  0  0  0
    4.5466   -0.4685   -4.1194 H   0  0  0  0  0  0  0  0  0  0  0  0
    5.0831   -0.6583    1.6933 C   0  0  0  0  0  0  0  0  0  0  0  0
    4.8759   -1.7201    1.9458 H   0  0  0  0  0  0  0  0  0  0  0  0
    4.2371   -0.0558    2.0961 H   0  0  0  0  0  0  0  0  0  0  0  0
    5.9920   -0.3498    2.2438 H   0  0  0  0  0  0  0  0  0  0  0  0
  1  3  1  0  0  0  0
  2  4  1  0  0  0  0
  2 13  1  0  0  0  0
  3  4  2  0  0  0  0
  3 11  1  0  0  0  0
  4  5  1  0  0  0  0
  5  6  1  0  0  0  0
  5  7  2  0  0  0  0
  7  8  1  0  0  0  0
  9  7  1  0  0  0  0
  9 10  1  0  0  0  0
 11  9  2  0  0  0  0
 12 11  1  0  0  0  0
 13 23  1  0  0  0  0
 14 15  1  0  0  0  0
 14 13  2  0  0  0  0
 16 14  1  0  0  0  0
 17 16  1  0  0  0  0
 18 16  2  0  0  0  0
 18  2  1  0  0  0  0
 19 20  1  0  0  0  0
 19 18  1  0  0  0  0
 21 19  1  0  0  0  0
 22 19  1  0  0  0  0
 23 24  1  0  0  0  0
 23 25  1  0  0  0  0
 23 26  1  0  0  0  0
M  END
