2
 OpenBabel05122313063D

 32 33  0  0  0  0  0  0  0  0999 V2000
    2.5335   -1.7887    1.0624 S   0  0  0  0  0  0  0  0  0  0  0  0
    2.2238    1.1390    0.2771 S   0  0  0  0  0  1  0  0  0  0  0  0
    4.4900   -0.2422    0.0727 N   0  0  0  0  0  0  0  0  0  0  0  0
    3.1628   -0.3447    0.4531 C   0  0  0  0  0  0  0  0  0  0  0  0
    5.4447   -1.3142    0.3425 C   0  0  0  0  0  0  0  0  0  0  0  0
    6.3307   -0.8830    0.8582 H   0  0  0  0  0  0  0  0  0  0  0  0
    4.9184   -2.0130    1.0311 H   0  0  0  0  0  0  0  0  0  0  0  0
    5.8748   -2.0442   -0.9089 C   0  0  0  0  0  0  0  0  0  0  0  0
    4.9030   -2.6751   -1.7165 C   0  0  0  0  0  0  0  0  0  0  0  0
    3.8482   -2.6316   -1.3981 H   0  0  0  0  0  0  0  0  0  0  0  0
    5.2841   -3.3523   -2.8826 C   0  0  0  0  0  0  0  0  0  0  0  0
    4.5175   -3.8435   -3.5021 H   0  0  0  0  0  0  0  0  0  0  0  0
    6.6369   -3.4080   -3.2636 C   0  0  0  0  0  0  0  0  0  0  0  0
    6.9320   -3.9375   -4.1831 H   0  0  0  0  0  0  0  0  0  0  0  0
    7.6082   -2.7800   -2.4689 C   0  0  0  0  0  0  0  0  0  0  0  0
    8.6691   -2.8122   -2.7636 H   0  0  0  0  0  0  0  0  0  0  0  0
    7.2260   -2.1002   -1.3003 C   0  0  0  0  0  0  0  0  0  0  0  0
    7.9854   -1.5985   -0.6779 H   0  0  0  0  0  0  0  0  0  0  0  0
    5.0498    0.9072   -0.6344 C   0  0  0  0  0  0  0  0  0  0  0  0
    5.5956    0.5357   -1.5296 H   0  0  0  0  0  0  0  0  0  0  0  0
    4.1977    1.5245   -0.9855 H   0  0  0  0  0  0  0  0  0  0  0  0
    5.9860    1.7322    0.2252 C   0  0  0  0  0  0  0  0  0  0  0  0
    5.5092    2.3416    1.4055 C   0  0  0  0  0  0  0  0  0  0  0  0
    4.4458    2.2193    1.6701 H   0  0  0  0  0  0  0  0  0  0  0  0
    6.3732    3.0926    2.2138 C   0  0  0  0  0  0  0  0  0  0  0  0
    5.9873    3.5667    3.1299 H   0  0  0  0  0  0  0  0  0  0  0  0
    7.7256    3.2453    1.8596 C   0  0  0  0  0  0  0  0  0  0  0  0
    8.4021    3.8352    2.4977 H   0  0  0  0  0  0  0  0  0  0  0  0
    8.2092    2.6386    0.6906 C   0  0  0  0  0  0  0  0  0  0  0  0
    9.2685    2.7469    0.4088 H   0  0  0  0  0  0  0  0  0  0  0  0
    7.3427    1.8844   -0.1181 C   0  0  0  0  0  0  0  0  0  0  0  0
    7.7212    1.3986   -1.0327 H   0  0  0  0  0  0  0  0  0  0  0  0
  2  4  1  0  0  0  0
  3  5  1  0  0  0  0
  3  4  1  0  0  0  0
  4  1  2  0  0  0  0
  5  6  1  0  0  0  0
  5  7  1  0  0  0  0
  8  5  1  0  0  0  0
  9 10  1  0  0  0  0
  9  8  2  0  0  0  0
 11  9  1  0  0  0  0
 12 11  1  0  0  0  0
 13 11  2  0  0  0  0
 13 15  1  0  0  0  0
 14 13  1  0  0  0  0
 15 17  2  0  0  0  0
 16 15  1  0  0  0  0
 17  8  1  0  0  0  0
 17 18  1  0  0  0  0
 19  3  1  0  0  0  0
 19 22  1  0  0  0  0
 20 19  1  0  0  0  0
 21 19  1  0  0  0  0
 22 23  1  0  0  0  0
 23 24  1  0  0  0  0
 23 25  2  0  0  0  0
 25 26  1  0  0  0  0
 27 25  1  0  0  0  0
 27 28  1  0  0  0  0
 29 27  2  0  0  0  0
 30 29  1  0  0  0  0
 31 22  2  0  0  0  0
 31 29  1  0  0  0  0
 32 31  1  0  0  0  0
M  END
