1
 OpenBabel05122313063D

  8  7  0  0  1  0  0  0  0  0999 V2000
   -1.6996    1.2417   -0.0009 S   0  0  0  0  0  1  0  0  0  0  0  0
   -3.0043    0.2114   -0.0005 C   0  0  1  0  0  3  0  0  0  0  0  0
   -2.8171   -1.1138   -0.0001 O   0  0  0  0  0  0  0  0  0  0  0  0
   -4.4166    0.7144    0.0001 C   0  0  0  0  0  0  0  0  0  0  0  0
   -3.6795   -1.5784   -0.0000 H   0  0  0  0  0  0  0  0  0  0  0  0
   -4.9607    0.3416   -0.8955 H   0  0  0  0  0  0  0  0  0  0  0  0
   -4.9574    0.3476    0.9003 H   0  0  0  0  0  0  0  0  0  0  0  0
   -4.4447    1.8177   -0.0034 H   0  0  0  0  0  0  0  0  0  0  0  0
  2  1  1  1  0  0  0
  2  3  1  0  0  0  0
  2  4  1  0  0  0  0
  3  5  1  0  0  0  0
  4  7  1  0  0  0  0
  6  4  1  0  0  0  0
  8  4  1  0  0  0  0
M  END
