1
 OpenBabel05122313063D

 28 28  0  0  1  0  0  0  0  0999 V2000
    1.9341   -2.4594   -0.3601 S   0  0  0  0  0  1  0  0  0  0  0  0
    6.3050    2.7768   -0.1543 O   0  0  0  0  0  0  0  0  0  0  0  0
    7.5866    0.9086   -0.1994 O   0  0  0  0  0  0  0  0  0  0  0  0
    2.9940   -0.0466    0.2312 N   0  0  0  0  0  0  0  0  0  0  0  0
    1.9937    0.2396    0.3519 H   0  0  0  0  0  0  0  0  0  0  0  0
    4.4857   -1.6811   -0.3961 N   0  0  0  0  0  0  0  0  0  0  0  0
    4.6333   -2.6515   -0.6810 H   0  0  0  0  0  0  0  0  0  0  0  0
    3.2049   -1.3385   -0.1501 C   0  0  2  0  0  3  0  0  0  0  0  0
    3.9641    0.9487    0.1631 C   0  0  0  0  0  0  0  0  0  0  0  0
    5.2822    0.5791    0.0180 C   0  0  0  0  0  0  0  0  0  0  0  0
    5.6310   -0.9020    0.0968 C   0  0  1  0  0  0  0  0  0  0  0  0
    6.4758   -1.1015   -0.5905 H   0  0  0  0  0  0  0  0  0  0  0  0
    3.4077    2.3372    0.2383 C   0  0  0  0  0  0  0  0  0  0  0  0
    4.2123    3.0872    0.1909 H   0  0  0  0  0  0  0  0  0  0  0  0
    2.8237    2.4508    1.1752 H   0  0  0  0  0  0  0  0  0  0  0  0
    2.6837    2.4951   -0.5876 H   0  0  0  0  0  0  0  0  0  0  0  0
    6.0352   -1.3315    1.5165 C   0  0  0  0  0  0  0  0  0  0  0  0
    6.2777   -2.4139    1.5529 H   0  0  0  0  0  0  0  0  0  0  0  0
    5.2140   -1.1301    2.2331 H   0  0  0  0  0  0  0  0  0  0  0  0
    6.9303   -0.7637    1.8353 H   0  0  0  0  0  0  0  0  0  0  0  0
    6.3792    1.5550   -0.1176 C   0  0  0  0  0  0  0  0  0  0  0  0
    8.7395    1.7584   -0.3407 C   0  0  0  0  0  0  0  0  0  0  0  0
    8.7663    2.4751    0.5076 H   0  0  0  0  0  0  0  0  0  0  0  0
    8.6277    2.3685   -1.2624 H   0  0  0  0  0  0  0  0  0  0  0  0
    9.9687    0.8736   -0.3849 C   0  0  0  0  0  0  0  0  0  0  0  0
   10.8796    1.4943   -0.4971 H   0  0  0  0  0  0  0  0  0  0  0  0
    9.9234    0.1698   -1.2399 H   0  0  0  0  0  0  0  0  0  0  0  0
   10.0680    0.2808    0.5464 H   0  0  0  0  0  0  0  0  0  0  0  0
  2 21  2  0  0  0  0
  3 21  1  0  0  0  0
  4  5  1  0  0  0  0
  6  8  1  0  0  0  0
  6 11  1  0  0  0  0
  7  6  1  0  0  0  0
  8  1  1  6  0  0  0
  8  4  1  0  0  0  0
  9  4  1  0  0  0  0
  9 13  1  0  0  0  0
 10 11  1  0  0  0  0
 10  9  2  0  0  0  0
 11 12  1  6  0  0  0
 11 17  1  0  0  0  0
 13 15  1  0  0  0  0
 14 13  1  0  0  0  0
 16 13  1  0  0  0  0
 17 18  1  0  0  0  0
 17 20  1  0  0  0  0
 17 19  1  0  0  0  0
 21 10  1  0  0  0  0
 22  3  1  0  0  0  0
 22 23  1  0  0  0  0
 24 22  1  0  0  0  0
 25 22  1  0  0  0  0
 25 28  1  0  0  0  0
 26 25  1  0  0  0  0
 27 25  1  0  0  0  0
M  END
