1
 OpenBabel05122313063D

 14 13  0  0  0  0  0  0  0  0999 V2000
   -0.6926    2.4591    0.8286 S   0  0  0  0  0  1  0  0  0  0  0  0
   -3.5915    2.6202    1.6196 S   0  0  0  0  0  0  0  0  0  0  0  0
   -2.2850    0.4264    0.7984 O   0  0  0  0  0  0  0  0  0  0  0  0
   -2.2656    1.7708    1.0862 C   0  0  0  0  0  0  0  0  0  0  0  0
   -3.4799   -0.3362    1.0302 C   0  0  0  0  0  0  0  0  0  0  0  0
   -3.4732   -1.1279    0.2504 H   0  0  0  0  0  0  0  0  0  0  0  0
   -4.3583    0.3293    0.8811 H   0  0  0  0  0  0  0  0  0  0  0  0
   -3.4881   -0.9401    2.4291 C   0  0  0  0  0  0  0  0  0  0  0  0
   -3.4825   -0.1037    3.1591 H   0  0  0  0  0  0  0  0  0  0  0  0
   -2.5445   -1.5077    2.5798 H   0  0  0  0  0  0  0  0  0  0  0  0
   -4.7016   -1.8403    2.6583 C   0  0  0  0  0  0  0  0  0  0  0  0
   -5.6498   -1.2757    2.5419 H   0  0  0  0  0  0  0  0  0  0  0  0
   -4.6962   -2.2735    3.6781 H   0  0  0  0  0  0  0  0  0  0  0  0
   -4.7266   -2.6852    1.9373 H   0  0  0  0  0  0  0  0  0  0  0  0
  1  4  1  0  0  0  0
  3  5  1  0  0  0  0
  3  4  1  0  0  0  0
  4  2  2  0  0  0  0
  5  8  1  0  0  0  0
  6  5  1  0  0  0  0
  7  5  1  0  0  0  0
  8 10  1  0  0  0  0
  8 11  1  0  0  0  0
  8  9  1  0  0  0  0
 11 13  1  0  0  0  0
 12 11  1  0  0  0  0
 14 11  1  0  0  0  0
M  END
