3
 OpenBabel05122313063D

 31 30  0  0  0  0  0  0  0  0999 V2000
    3.1060   -0.1594    0.7630 P   0  0  0  0  0  4  0  0  0  0  0  0
    2.2006   -0.4540    2.5018 S   0  0  0  0  0  1  0  0  0  0  0  0
    2.0088   -0.3886   -0.9617 S   0  0  0  0  0  1  0  0  0  0  0  0
    3.8050    1.3190    0.8162 O   0  0  0  0  0  0  0  0  0  0  0  0
    4.4608   -1.0703    0.5301 O   0  0  0  0  0  0  0  0  0  0  0  0
    4.5202    1.8227   -0.3303 C   0  0  0  0  0  0  0  0  0  0  0  0
    3.9560    1.5625   -1.2539 H   0  0  0  0  0  0  0  0  0  0  0  0
    5.5157    1.3264   -0.3765 H   0  0  0  0  0  0  0  0  0  0  0  0
    4.6705    3.3361   -0.1986 C   0  0  0  0  0  0  0  0  0  0  0  0
    3.6395    3.7539   -0.1620 H   0  0  0  0  0  0  0  0  0  0  0  0
    5.3735    3.8887   -1.4434 C   0  0  0  0  0  0  0  0  0  0  0  0
    6.4004    3.4757   -1.5386 H   0  0  0  0  0  0  0  0  0  0  0  0
    5.4643    4.9921   -1.3892 H   0  0  0  0  0  0  0  0  0  0  0  0
    4.8217    3.6395   -2.3730 H   0  0  0  0  0  0  0  0  0  0  0  0
    5.3987    3.7197    1.0933 C   0  0  0  0  0  0  0  0  0  0  0  0
    4.8881    3.2925    1.9781 H   0  0  0  0  0  0  0  0  0  0  0  0
    5.4463    4.8211    1.2141 H   0  0  0  0  0  0  0  0  0  0  0  0
    6.4415    3.3359    1.0867 H   0  0  0  0  0  0  0  0  0  0  0  0
    4.3370   -2.5019    0.4881 C   0  0  0  0  0  0  0  0  0  0  0  0
    3.3087   -2.7839    0.1622 H   0  0  0  0  0  0  0  0  0  0  0  0
    4.4939   -2.8969    1.5158 H   0  0  0  0  0  0  0  0  0  0  0  0
    5.3594   -3.0801   -0.4885 C   0  0  0  0  0  0  0  0  0  0  0  0
    6.3623   -2.7392   -0.1450 H   0  0  0  0  0  0  0  0  0  0  0  0
    5.1275   -2.5581   -1.9099 C   0  0  0  0  0  0  0  0  0  0  0  0
    4.1360   -2.8813   -2.2916 H   0  0  0  0  0  0  0  0  0  0  0  0
    5.9034   -2.9354   -2.6062 H   0  0  0  0  0  0  0  0  0  0  0  0
    5.1456   -1.4513   -1.9347 H   0  0  0  0  0  0  0  0  0  0  0  0
    5.3165   -4.6110   -0.4247 C   0  0  0  0  0  0  0  0  0  0  0  0
    5.5141   -4.9879    0.6000 H   0  0  0  0  0  0  0  0  0  0  0  0
    6.0729   -5.0577   -1.1004 H   0  0  0  0  0  0  0  0  0  0  0  0
    4.3222   -4.9929   -0.7407 H   0  0  0  0  0  0  0  0  0  0  0  0
  1  4  1  0  0  0  0
  1  2  1  0  0  0  0
  3  1  1  0  0  0  0
  5  1  1  0  0  0  0
  6  9  1  0  0  0  0
  6  4  1  0  0  0  0
  7  6  1  0  0  0  0
  8  6  1  0  0  0  0
  9 10  1  0  0  0  0
  9 15  1  0  0  0  0
 11 13  1  0  0  0  0
 11  9  1  0  0  0  0
 12 11  1  0  0  0  0
 14 11  1  0  0  0  0
 15 17  1  0  0  0  0
 15 16  1  0  0  0  0
 18 15  1  0  0  0  0
 19  5  1  0  0  0  0
 19 21  1  0  0  0  0
 20 19  1  0  0  0  0
 22 28  1  0  0  0  0
 22 23  1  0  0  0  0
 22 19  1  0  0  0  0
 24 22  1  0  0  0  0
 25 24  1  0  0  0  0
 26 24  1  0  0  0  0
 27 24  1  0  0  0  0
 28 29  1  0  0  0  0
 30 28  1  0  0  0  0
 31 28  1  0  0  0  0
M  END
