1
 OpenBabel05122313063D

 24 24  0  0  0  0  0  0  0  0999 V2000
   -1.7795   -0.5917   -1.6045 S   0  0  0  0  0  1  0  0  0  0  0  0
   -3.1395   -1.0377   -0.5057 C   0  0  0  0  0  0  0  0  0  0  0  0
   -3.9602   -0.0376    0.0826 C   0  0  0  0  0  0  0  0  0  0  0  0
   -3.3982   -2.4085   -0.2966 C   0  0  0  0  0  0  0  0  0  0  0  0
   -3.7040    1.8394   -0.1855 Si  0  0  0  0  0  0  0  0  0  0  0  0
   -5.0351   -0.4819    0.8876 C   0  0  0  0  0  0  0  0  0  0  0  0
   -4.4699   -2.8121    0.5108 C   0  0  0  0  0  0  0  0  0  0  0  0
   -2.7475   -3.1529   -0.7793 H   0  0  0  0  0  0  0  0  0  0  0  0
   -2.0060    2.4267    0.4287 C   0  0  0  0  0  0  0  0  0  0  0  0
   -5.0201    2.7464    0.8370 C   0  0  0  0  0  0  0  0  0  0  0  0
   -3.9474    2.2942   -2.0050 C   0  0  0  0  0  0  0  0  0  0  0  0
   -5.2914   -1.8442    1.1071 C   0  0  0  0  0  0  0  0  0  0  0  0
   -5.6948    0.2605    1.3623 H   0  0  0  0  0  0  0  0  0  0  0  0
   -4.6624   -3.8840    0.6707 H   0  0  0  0  0  0  0  0  0  0  0  0
   -1.2143    2.2321   -0.3199 H   0  0  0  0  0  0  0  0  0  0  0  0
   -1.7222    1.9313    1.3806 H   0  0  0  0  0  0  0  0  0  0  0  0
   -2.0334    3.5201    0.6177 H   0  0  0  0  0  0  0  0  0  0  0  0
   -6.0502    2.4789    0.5242 H   0  0  0  0  0  0  0  0  0  0  0  0
   -4.9042    3.8409    0.6953 H   0  0  0  0  0  0  0  0  0  0  0  0
   -4.9232    2.5389    1.9225 H   0  0  0  0  0  0  0  0  0  0  0  0
   -3.1973    1.7865   -2.6422 H   0  0  0  0  0  0  0  0  0  0  0  0
   -3.8433    3.3905   -2.1445 H   0  0  0  0  0  0  0  0  0  0  0  0
   -4.9581    1.9983   -2.3528 H   0  0  0  0  0  0  0  0  0  0  0  0
   -6.1359   -2.1493    1.7438 H   0  0  0  0  0  0  0  0  0  0  0  0
  1  2  1  0  0  0  0
  2  4  2  0  0  0  0
  2  3  1  0  0  0  0
  3  6  2  0  0  0  0
  4  7  1  0  0  0  0
  5  3  1  0  0  0  0
  5  9  1  0  0  0  0
  5 10  1  0  0  0  0
  6 12  1  0  0  0  0
  6 13  1  0  0  0  0
  7 14  1  0  0  0  0
  7 12  2  0  0  0  0
  8  4  1  0  0  0  0
  9 17  1  0  0  0  0
  9 16  1  0  0  0  0
 10 20  1  0  0  0  0
 11  5  1  0  0  0  0
 12 24  1  0  0  0  0
 15  9  1  0  0  0  0
 18 10  1  0  0  0  0
 19 10  1  0  0  0  0
 21 11  1  0  0  0  0
 22 11  1  0  0  0  0
 23 11  1  0  0  0  0
M  END
