1
 OpenBabel05122313063D

 17 18  0  0  0  0  0  0  0  0999 V2000
   -2.3680   -2.4237    0.1492 S   0  0  0  0  0  1  0  0  0  0  0  0
   -2.3305    0.7298   -0.0142 N   0  0  0  0  0  0  0  0  0  0  0  0
   -3.7035   -1.2791    0.0638 C   0  0  0  0  0  0  0  0  0  0  0  0
   -5.0055   -1.8089    0.0677 C   0  0  0  0  0  0  0  0  0  0  0  0
   -6.1549   -0.9908    0.0112 C   0  0  0  0  0  0  0  0  0  0  0  0
   -6.0470    0.3927   -0.0532 C   0  0  0  0  0  0  0  0  0  0  0  0
   -4.7566    0.9882   -0.0622 C   0  0  0  0  0  0  0  0  0  0  0  0
   -4.5715    2.3992   -0.1286 C   0  0  0  0  0  0  0  0  0  0  0  0
   -3.2951    2.9374   -0.1364 C   0  0  0  0  0  0  0  0  0  0  0  0
   -2.1921    2.0468   -0.0772 C   0  0  0  0  0  0  0  0  0  0  0  0
   -3.5671    0.1632   -0.0041 C   0  0  0  0  0  0  0  0  0  0  0  0
   -5.1196   -2.9023    0.1175 H   0  0  0  0  0  0  0  0  0  0  0  0
   -7.1477   -1.4668    0.0184 H   0  0  0  0  0  0  0  0  0  0  0  0
   -6.9385    1.0365   -0.0982 H   0  0  0  0  0  0  0  0  0  0  0  0
   -5.4607    3.0483   -0.1745 H   0  0  0  0  0  0  0  0  0  0  0  0
   -3.1263    4.0232   -0.1887 H   0  0  0  0  0  0  0  0  0  0  0  0
   -1.1582    2.4358   -0.0885 H   0  0  0  0  0  0  0  0  0  0  0  0
  2 11  1  0  0  0  0
  3  4  1  0  0  0  0
  3  1  1  0  0  0  0
  4 12  1  0  0  0  0
  5 13  1  0  0  0  0
  5  4  2  0  0  0  0
  6  5  1  0  0  0  0
  7  6  2  0  0  0  0
  7 11  1  0  0  0  0
  8  7  1  0  0  0  0
  9  8  2  0  0  0  0
  9 10  1  0  0  0  0
 10  2  2  0  0  0  0
 11  3  2  0  0  0  0
 14  6  1  0  0  0  0
 15  8  1  0  0  0  0
 16  9  1  0  0  0  0
 17 10  1  0  0  0  0
M  END
