1
 OpenBabel05122313063D

 11 11  0  0  1  0  0  0  0  0999 V2000
    0.1653    1.5691   -0.0007 S   0  0  0  0  0  1  0  0  0  0  0  0
    1.6391   -1.0113    0.0004 S   0  0  0  0  0  0  0  0  0  0  0  0
    3.7647   -1.1861    0.0003 S   0  0  0  0  0  0  0  0  0  0  0  0
    1.6318    0.7406   -0.0003 C   0  0  2  0  0  3  0  0  0  0  0  0
    2.9293    1.3428   -0.0004 C   0  0  0  0  0  0  0  0  0  0  0  0
    3.0112    2.4395   -0.0007 H   0  0  0  0  0  0  0  0  0  0  0  0
    4.0465    0.5400   -0.0003 C   0  0  0  0  0  0  0  0  0  0  0  0
    5.4726    1.0019   -0.0005 C   0  0  0  0  0  0  0  0  0  0  0  0
    5.5150    2.1071   -0.0017 H   0  0  0  0  0  0  0  0  0  0  0  0
    6.0160    0.6302   -0.8938 H   0  0  0  0  0  0  0  0  0  0  0  0
    6.0156    0.6321    0.8937 H   0  0  0  0  0  0  0  0  0  0  0  0
  3  2  1  0  0  0  0
  4  1  1  1  0  0  0
  4  2  1  0  0  0  0
  5  7  2  0  0  0  0
  5  4  1  0  0  0  0
  6  5  1  0  0  0  0
  7  3  1  0  0  0  0
  8  7  1  0  0  0  0
  8 11  1  0  0  0  0
  9  8  1  0  0  0  0
 10  8  1  0  0  0  0
M  END
