1
 OpenBabel05122313063D

 16 16  0  0  1  0  0  0  0  0999 V2000
   -1.9263   -0.3469    1.3741 S   0  0  0  0  0  1  0  0  0  0  0  0
   -3.0245   -0.1403   -1.1704 N   0  0  0  0  0  0  0  0  0  0  0  0
   -3.9534    1.1667    0.3469 N   0  0  0  0  0  0  0  0  0  0  0  0
   -2.9760    0.2254    0.1347 C   0  0  1  0  0  3  0  0  0  0  0  0
   -4.0460    0.5669   -1.7816 C   0  0  0  0  0  0  0  0  0  0  0  0
   -4.2669    0.4329   -2.8439 H   0  0  0  0  0  0  0  0  0  0  0  0
   -2.1135   -1.1783   -1.8893 B   0  0  0  0  0  0  0  0  0  0  0  0
   -4.6326    1.3820   -0.8453 C   0  0  0  0  0  0  0  0  0  0  0  0
   -5.4564    2.0972   -0.9207 H   0  0  0  0  0  0  0  0  0  0  0  0
   -4.1694    1.8379    1.6127 C   0  0  0  0  0  0  0  0  0  0  0  0
   -3.2375    2.3474    1.9311 H   0  0  0  0  0  0  0  0  0  0  0  0
   -4.4543    1.1085    2.3974 H   0  0  0  0  0  0  0  0  0  0  0  0
   -4.9757    2.5834    1.4921 H   0  0  0  0  0  0  0  0  0  0  0  0
   -1.9672   -0.8390   -3.0625 H   0  0  0  0  0  0  0  0  0  0  0  0
   -2.5388   -2.3186   -1.8036 H   0  0  0  0  0  0  0  0  0  0  0  0
   -0.8817   -0.9396   -1.5390 H   0  0  0  0  0  0  0  0  0  0  0  0
  2  4  1  0  0  0  0
  3 10  1  0  0  0  0
  4  3  1  0  0  0  0
  4  1  1  1  0  0  0
  5  2  1  0  0  0  0
  5  8  2  0  0  0  0
  6  5  1  0  0  0  0
  7 15  1  0  0  0  0
  7 16  1  0  0  0  0
  7  2  1  0  0  0  0
  8  3  1  0  0  0  0
  9  8  1  0  0  0  0
 10 11  1  0  0  0  0
 10 12  1  0  0  0  0
 13 10  1  0  0  0  0
 14  7  1  0  0  0  0
M  END
