1
 OpenBabel05122313063D

 10 10  0  0  0  0  0  0  0  0999 V2000
    0.5460   -1.5121    0.0097 S   0  0  0  0  0  1  0  0  0  0  0  0
    3.4778   -0.9734   -0.1030 S   0  0  0  0  0  0  0  0  0  0  0  0
    1.5894    1.3120    0.0471 S   0  0  0  0  0  0  0  0  0  0  0  0
    1.8200   -0.4146   -0.0149 C   0  0  0  0  0  3  0  0  0  0  0  0
    4.2150    0.6477    0.3517 C   0  0  0  0  0  0  0  0  0  0  0  0
    5.2559    0.6625   -0.0294 H   0  0  0  0  0  0  0  0  0  0  0  0
    4.2316    0.7224    1.4582 H   0  0  0  0  0  0  0  0  0  0  0  0
    3.3557    1.7327   -0.2788 C   0  0  0  0  0  0  0  0  0  0  0  0
    3.5518    2.7283    0.1670 H   0  0  0  0  0  0  0  0  0  0  0  0
    3.4985    1.7906   -1.3771 H   0  0  0  0  0  0  0  0  0  0  0  0
  2  4  1  0  0  0  0
  2  5  1  0  0  0  0
  4  1  1  0  0  0  0
  4  3  1  0  0  0  0
  5  7  1  0  0  0  0
  6  5  1  0  0  0  0
  8  3  1  0  0  0  0
  8  9  1  0  0  0  0
  8  5  1  0  0  0  0
 10  8  1  0  0  0  0
M  END
