2
 OpenBabel05122313063D

 11 10  0  0  0  0  0  0  0  0999 V2000
   -1.8468   -0.0128    1.4715 S   0  0  0  0  0  1  0  0  0  0  0  0
   -1.1434   -0.7345   -1.7024 S   0  0  0  0  0  1  0  0  0  0  0  0
   -2.0951   -1.8033    1.1462 C   0  0  0  0  0  0  0  0  0  0  0  0
   -3.0337   -2.0542   -0.0476 C   0  0  0  0  0  0  0  0  0  0  0  0
   -2.8864   -1.0328   -1.1831 C   0  0  0  0  0  0  0  0  0  0  0  0
   -1.0892   -2.2333    0.9668 H   0  0  0  0  0  0  0  0  0  0  0  0
   -2.5034   -2.2758    2.0649 H   0  0  0  0  0  0  0  0  0  0  0  0
   -2.8401   -3.0784   -0.4398 H   0  0  0  0  0  0  0  0  0  0  0  0
   -4.0938   -2.0377    0.2985 H   0  0  0  0  0  0  0  0  0  0  0  0
   -3.3211   -0.0652   -0.8585 H   0  0  0  0  0  0  0  0  0  0  0  0
   -3.4470   -1.3785   -2.0787 H   0  0  0  0  0  0  0  0  0  0  0  0
  2  5  1  0  0  0  0
  3  1  1  0  0  0  0
  3  7  1  0  0  0  0
  4  9  1  0  0  0  0
  4  3  1  0  0  0  0
  5 10  1  0  0  0  0
  5  4  1  0  0  0  0
  6  3  1  0  0  0  0
  8  4  1  0  0  0  0
 11  5  1  0  0  0  0
M  END
