1
 OpenBabel05122313063D

 13 13  0  0  0  0  0  0  0  0999 V2000
    1.4255   -1.3814    1.0228 S   0  0  0  0  0  1  0  0  0  0  0  0
    1.7842    0.3391   -1.4525 O   0  0  0  0  0  0  0  0  0  0  0  0
    2.9774   -0.1722   -0.9884 C   0  0  0  0  0  0  0  0  0  0  0  0
    2.9145   -1.0243    0.1444 C   0  0  0  0  0  0  0  0  0  0  0  0
    4.1360   -1.5726    0.6011 C   0  0  0  0  0  0  0  0  0  0  0  0
    4.1055   -2.2345    1.4800 H   0  0  0  0  0  0  0  0  0  0  0  0
    5.3563   -1.2744   -0.0201 C   0  0  0  0  0  0  0  0  0  0  0  0
    6.2864   -1.7148    0.3698 H   0  0  0  0  0  0  0  0  0  0  0  0
    5.3925   -0.4139   -1.1296 C   0  0  0  0  0  0  0  0  0  0  0  0
    6.3451   -0.1672   -1.6209 H   0  0  0  0  0  0  0  0  0  0  0  0
    4.1935    0.1282   -1.6158 C   0  0  0  0  0  0  0  0  0  0  0  0
    4.1954    0.8024   -2.4877 H   0  0  0  0  0  0  0  0  0  0  0  0
    1.9494    1.1361   -1.9907 H   0  0  0  0  0  0  0  0  0  0  0  0
  2  3  1  0  0  0  0
  3  4  1  0  0  0  0
  4  5  2  0  0  0  0
  4  1  1  0  0  0  0
  5  6  1  0  0  0  0
  7  8  1  0  0  0  0
  7  5  1  0  0  0  0
  9  7  2  0  0  0  0
 10  9  1  0  0  0  0
 11  9  1  0  0  0  0
 11  3  2  0  0  0  0
 12 11  1  0  0  0  0
 13  2  1  0  0  0  0
M  END
