1
 OpenBabel05122313063D

 35 37  0  0  1  0  0  0  0  0999 V2000
    2.2611    1.0237   -0.1598 S   0  0  0  0  0  1  0  0  0  0  0  0
    4.6811   -0.0369   -0.3624 N   0  0  0  0  0  0  0  0  0  0  0  0
    5.5846   -1.0510   -0.4726 N   0  0  0  0  0  2  0  0  0  0  0  0
    2.9896   -1.5940   -0.2039 N   0  0  0  0  0  0  0  0  0  0  0  0
    3.7393   -2.2864   -0.2765 H   0  0  0  0  0  0  0  0  0  0  0  0
    1.9879   -1.8910   -0.1368 H   0  0  0  0  0  0  0  0  0  0  0  0
    6.7746   -0.5491   -0.6705 C   0  0  1  0  0  3  0  0  0  0  0  0
    5.3041    1.3088   -0.3253 C   0  0  1  0  0  0  0  0  0  0  0  0
    4.7857    1.9632   -1.0523 H   0  0  0  0  0  0  0  0  0  0  0  0
    3.3349   -0.3074   -0.2392 C   0  0  2  0  0  3  0  0  0  0  0  0
    7.9614   -1.3867   -0.8270 C   0  0  0  0  0  0  0  0  0  0  0  0
    5.2287    1.9353    1.0565 C   0  0  0  0  0  0  0  0  0  0  0  0
   10.3641   -1.6014   -1.2354 C   0  0  0  0  0  0  0  0  0  0  0  0
   11.3387   -1.1294   -1.4314 H   0  0  0  0  0  0  0  0  0  0  0  0
    9.2243   -0.8008   -1.0787 C   0  0  0  0  0  0  0  0  0  0  0  0
    9.3170    0.2927   -1.1536 H   0  0  0  0  0  0  0  0  0  0  0  0
    6.7537    0.9651   -0.7623 C   0  0  0  0  0  0  0  0  0  0  0  0
    6.9725    1.2881   -1.8026 H   0  0  0  0  0  0  0  0  0  0  0  0
    7.5027    1.4447   -0.1026 H   0  0  0  0  0  0  0  0  0  0  0  0
   10.2642   -2.9976   -1.1418 C   0  0  0  0  0  0  0  0  0  0  0  0
   11.1596   -3.6256   -1.2633 H   0  0  0  0  0  0  0  0  0  0  0  0
    7.8738   -2.7981   -0.7340 C   0  0  0  0  0  0  0  0  0  0  0  0
    6.8935   -3.2543   -0.5362 H   0  0  0  0  0  0  0  0  0  0  0  0
    9.0131   -3.5912   -0.8901 C   0  0  0  0  0  0  0  0  0  0  0  0
    8.9293   -4.6861   -0.8148 H   0  0  0  0  0  0  0  0  0  0  0  0
    5.0312    3.3207    1.1903 C   0  0  0  0  0  0  0  0  0  0  0  0
    4.8624    3.9331    0.2906 H   0  0  0  0  0  0  0  0  0  0  0  0
    5.4152    1.1524    2.2116 C   0  0  0  0  0  0  0  0  0  0  0  0
    5.5507    0.0635    2.1180 H   0  0  0  0  0  0  0  0  0  0  0  0
    5.0258    3.9189    2.4588 C   0  0  0  0  0  0  0  0  0  0  0  0
    4.8604    5.0031    2.5515 H   0  0  0  0  0  0  0  0  0  0  0  0
    5.2143    3.1344    3.6073 C   0  0  0  0  0  0  0  0  0  0  0  0
    5.2021    3.6013    4.6037 H   0  0  0  0  0  0  0  0  0  0  0  0
    5.4063    1.7492    3.4802 C   0  0  0  0  0  0  0  0  0  0  0  0
    5.5440    1.1266    4.3772 H   0  0  0  0  0  0  0  0  0  0  0  0
  2  8  1  0  0  0  0
  2 10  1  0  0  0  0
  3  2  1  0  0  0  0
  4  6  1  0  0  0  0
  5  4  1  0  0  0  0
  7 11  1  6  0  0  0
  7  3  1  0  0  0  0
  8  9  1  6  0  0  0
  8 12  1  0  0  0  0
 10  4  1  0  0  0  0
 10  1  1  6  0  0  0
 11 22  1  0  0  0  0
 12 26  2  0  0  0  0
 12 28  1  0  0  0  0
 13 20  2  0  0  0  0
 13 15  1  0  0  0  0
 14 13  1  0  0  0  0
 15 11  2  0  0  0  0
 16 15  1  0  0  0  0
 17  7  1  0  0  0  0
 17  8  1  0  0  0  0
 17 19  1  0  0  0  0
 18 17  1  0  0  0  0
 20 24  1  0  0  0  0
 21 20  1  0  0  0  0
 22 23  1  0  0  0  0
 24 25  1  0  0  0  0
 24 22  2  0  0  0  0
 26 30  1  0  0  0  0
 27 26  1  0  0  0  0
 28 34  2  0  0  0  0
 29 28  1  0  0  0  0
 30 31  1  0  0  0  0
 30 32  2  0  0  0  0
 32 33  1  0  0  0  0
 34 32  1  0  0  0  0
 34 35  1  0  0  0  0
M  END
