1
 OpenBabel05122313063D

 18 18  0  0  0  0  0  0  0  0999 V2000
   -1.8036   -1.4776    1.1960 S   0  0  0  0  0  1  0  0  0  0  0  0
   -6.4932   -2.2947   -0.6678 Cl  0  0  0  0  0  0  0  0  0  0  0  0
   -2.9304    2.1888    1.1958 O   0  5  0  0  0  0  0  0  0  0  0  0
   -1.2461    1.3588   -0.0498 O   0  0  0  0  0  0  0  0  0  0  0  0
   -2.3297    1.2565    0.6197 C   0  0  0  0  0  0  0  0  0  0  0  0
   -2.9154   -0.1688    0.7164 C   0  0  0  0  0  0  0  0  0  0  0  0
   -4.2121   -0.5689    0.4675 C   0  0  0  0  0  0  0  0  0  0  0  0
   -4.3575   -1.6613    0.4907 H   0  0  0  0  0  0  0  0  0  0  0  0
   -5.4284    0.1541    0.1191 C   0  0  0  0  0  0  0  0  0  0  0  0
   -6.5588   -0.5488   -0.4029 C   0  0  0  0  0  0  0  0  0  0  0  0
   -7.7623    0.0846   -0.7421 C   0  0  0  0  0  0  0  0  0  0  0  0
   -8.5858   -0.5234   -1.1445 H   0  0  0  0  0  0  0  0  0  0  0  0
   -7.8966    1.4699   -0.5702 C   0  0  0  0  0  0  0  0  0  0  0  0
   -8.8414    1.9685   -0.8386 H   0  0  0  0  0  0  0  0  0  0  0  0
   -6.8114    2.1960   -0.0485 C   0  0  0  0  0  0  0  0  0  0  0  0
   -6.8999    3.2834    0.1072 H   0  0  0  0  0  0  0  0  0  0  0  0
   -5.6153    1.5574    0.2895 C   0  0  0  0  0  0  0  0  0  0  0  0
   -4.7646    2.1112    0.7235 H   0  0  0  0  0  0  0  0  0  0  0  0
  2 10  1  0  0  0  0
  4  5  2  0  0  0  0
  5  6  1  0  0  0  0
  5  3  1  0  0  0  0
  6  1  1  0  0  0  0
  7  8  1  0  0  0  0
  7  6  2  0  0  0  0
  9 17  1  0  0  0  0
  9  7  1  0  0  0  0
 10  9  2  0  0  0  0
 11 13  2  0  0  0  0
 11 10  1  0  0  0  0
 12 11  1  0  0  0  0
 13 15  1  0  0  0  0
 14 13  1  0  0  0  0
 15 16  1  0  0  0  0
 15 17  2  0  0  0  0
 17 18  1  0  0  0  0
M  CHG  1   3  -1
M  END
