1
 OpenBabel05122313063D

 28 28  0  0  0  0  0  0  0  0999 V2000
    2.3747    0.9587   -0.5341 S   0  0  0  0  0  1  0  0  0  0  0  0
    1.9857   -1.5669    0.1133 O   0  0  0  0  0  0  0  0  0  0  0  0
    4.2097   -1.0154   -0.0007 N   0  0  0  0  0  0  0  0  0  0  0  0
    2.9803   -0.6553   -0.0932 C   0  0  0  0  0  0  0  0  0  0  0  0
    5.3157   -0.1736   -0.1135 C   0  0  0  0  0  0  0  0  0  0  0  0
    5.4460    1.0171    0.6370 C   0  0  0  0  0  0  0  0  0  0  0  0
    4.6200    1.3176    1.2993 H   0  0  0  0  0  0  0  0  0  0  0  0
    6.6003    1.8177    0.5526 C   0  0  0  0  0  0  0  0  0  0  0  0
    7.6443    1.4156   -0.3038 C   0  0  0  0  0  0  0  0  0  0  0  0
    8.5528    2.0335   -0.3811 H   0  0  0  0  0  0  0  0  0  0  0  0
    7.5314    0.2306   -1.0498 C   0  0  0  0  0  0  0  0  0  0  0  0
    8.3545   -0.0784   -1.7131 H   0  0  0  0  0  0  0  0  0  0  0  0
    6.3855   -0.5653   -0.9536 C   0  0  0  0  0  0  0  0  0  0  0  0
    6.2883   -1.5008   -1.5238 H   0  0  0  0  0  0  0  0  0  0  0  0
    6.6977    3.0867    1.3650 C   0  0  0  0  0  0  0  0  0  0  0  0
    7.6693    3.5961    1.2132 H   0  0  0  0  0  0  0  0  0  0  0  0
    6.5863    2.8828    2.4506 H   0  0  0  0  0  0  0  0  0  0  0  0
    5.8932    3.8011    1.0905 H   0  0  0  0  0  0  0  0  0  0  0  0
    2.3663   -2.9039    0.5366 C   0  0  0  0  0  0  0  0  0  0  0  0
    3.3252   -3.1464    0.0322 H   0  0  0  0  0  0  0  0  0  0  0  0
    1.2560   -3.8314    0.0640 C   0  0  0  0  0  0  0  0  0  0  0  0
    1.1254   -3.7629   -1.0339 H   0  0  0  0  0  0  0  0  0  0  0  0
    0.2908   -3.5698    0.5445 H   0  0  0  0  0  0  0  0  0  0  0  0
    1.4969   -4.8813    0.3237 H   0  0  0  0  0  0  0  0  0  0  0  0
    2.5773   -2.9201    2.0467 C   0  0  0  0  0  0  0  0  0  0  0  0
    3.3920   -2.2248    2.3253 H   0  0  0  0  0  0  0  0  0  0  0  0
    2.8592   -3.9365    2.3890 H   0  0  0  0  0  0  0  0  0  0  0  0
    1.6489   -2.6177    2.5747 H   0  0  0  0  0  0  0  0  0  0  0  0
  1  4  1  0  0  0  0
  2 19  1  0  0  0  0
  4  3  2  0  0  0  0
  4  2  1  0  0  0  0
  5  3  1  0  0  0  0
  5  6  1  0  0  0  0
  6  7  1  0  0  0  0
  8  6  2  0  0  0  0
  8 15  1  0  0  0  0
  9  8  1  0  0  0  0
 10  9  1  0  0  0  0
 11 13  1  0  0  0  0
 11  9  2  0  0  0  0
 12 11  1  0  0  0  0
 13  5  2  0  0  0  0
 14 13  1  0  0  0  0
 15 17  1  0  0  0  0
 16 15  1  0  0  0  0
 18 15  1  0  0  0  0
 19 25  1  0  0  0  0
 20 19  1  0  0  0  0
 21 24  1  0  0  0  0
 21 19  1  0  0  0  0
 21 23  1  0  0  0  0
 22 21  1  0  0  0  0
 25 26  1  0  0  0  0
 25 27  1  0  0  0  0
 25 28  1  0  0  0  0
M  END
