1
 OpenBabel05122313063D

 14 14  0  0  0  0  0  0  0  0999 V2000
   -0.5741   -1.7146   -1.9540 S   0  0  0  0  0  1  0  0  0  0  0  0
   -2.8843    0.2545   -1.5411 S   0  0  0  0  0  0  0  0  0  0  0  0
   -4.7960    2.1338   -0.6752 O   0  0  0  0  0  0  0  0  0  0  0  0
   -3.2209   -2.1517   -2.4838 N   0  0  0  0  0  0  0  0  0  0  0  0
   -4.4612   -1.5997   -2.4308 N   0  0  0  0  0  0  0  0  0  0  0  0
   -5.6520    0.3222   -1.7696 N   0  0  0  0  0  0  0  0  0  0  0  0
   -6.4794   -0.1674   -2.1201 H   0  0  0  0  0  0  0  0  0  0  0  0
   -2.2674   -1.3417   -2.0609 C   0  0  0  0  0  0  0  0  0  0  0  0
   -4.4647   -0.3766   -1.9462 C   0  0  0  0  0  0  0  0  0  0  0  0
   -5.7731    1.5416   -1.1377 C   0  0  0  0  0  0  0  0  0  0  0  0
   -7.1802    2.1003   -1.0648 C   0  0  0  0  0  0  0  0  0  0  0  0
   -7.4191    2.3289   -0.0077 H   0  0  0  0  0  0  0  0  0  0  0  0
   -7.9548    1.4252   -1.4762 H   0  0  0  0  0  0  0  0  0  0  0  0
   -7.2102    3.0606   -1.6172 H   0  0  0  0  0  0  0  0  0  0  0  0
  4  5  1  0  0  0  0
  4  8  2  0  0  0  0
  5  9  2  0  0  0  0
  6 10  1  0  0  0  0
  7  6  1  0  0  0  0
  8  1  1  0  0  0  0
  8  2  1  0  0  0  0
  9  6  1  0  0  0  0
  9  2  1  0  0  0  0
 10 11  1  0  0  0  0
 10  3  2  0  0  0  0
 11 12  1  0  0  0  0
 13 11  1  0  0  0  0
 14 11  1  0  0  0  0
M  END
