1
 OpenBabel05122313063D

 20 20  0  0  0  0  0  0  0  0999 V2000
    2.2124   -2.1254   -0.8722 S   0  0  0  0  0  1  0  0  0  0  0  0
   -2.1579    2.7167   -1.1092 N   0  0  0  0  0  0  0  0  0  0  0  0
    0.5048    0.3612   -1.6023 N   0  0  0  0  0  2  0  0  0  0  0  0
    1.8490    0.5112   -1.7377 N   0  0  0  0  0  2  0  0  0  0  0  0
    3.9653   -0.3795   -1.7785 N   0  0  0  0  0  4  0  0  0  0  0  0
    4.2521    0.5725   -2.0185 H   0  0  0  0  0  0  0  0  0  0  0  0
    4.6111   -0.9152   -1.1962 H   0  0  0  0  0  0  0  0  0  0  0  0
    0.4541    2.7211   -1.7586 N   0  0  0  0  0  4  0  0  0  0  0  0
    1.4688    2.7237   -1.6408 H   0  0  0  0  0  0  0  0  0  0  0  0
   -0.1163    3.5320   -1.5130 H   0  0  0  0  0  0  0  0  0  0  0  0
   -3.7578    0.4291   -1.4713 N   0  0  0  0  0  0  0  0  0  0  0  0
   -3.4836    2.7498   -0.9212 C   0  0  0  0  0  0  0  0  0  0  0  0
   -3.9318    3.7198   -0.6412 H   0  0  0  0  0  0  0  0  0  0  0  0
   -4.2799    1.6047   -1.0794 C   0  0  0  0  0  0  0  0  0  0  0  0
   -5.3691    1.6438   -0.9008 H   0  0  0  0  0  0  0  0  0  0  0  0
   -2.4368    0.3937   -1.6732 C   0  0  0  0  0  0  0  0  0  0  0  0
   -1.9974   -0.5521   -2.0281 H   0  0  0  0  0  0  0  0  0  0  0  0
   -1.6158    1.5287   -1.4589 C   0  0  0  0  0  0  0  0  0  0  0  0
   -0.1481    1.5124   -1.6189 C   0  0  0  0  0  0  0  0  0  0  0  0
    2.6285   -0.5195   -1.4951 C   0  0  0  0  0  0  0  0  0  0  0  0
  2 12  1  0  0  0  0
  4  3  1  0  0  0  0
  4 20  1  0  0  0  0
  5 20  2  0  0  0  0
  5  7  1  0  0  0  0
  6  5  1  0  0  0  0
  8  9  1  0  0  0  0
  8 19  2  0  0  0  0
  8 10  1  0  0  0  0
 11 14  1  0  0  0  0
 12 13  1  0  0  0  0
 14 12  2  0  0  0  0
 14 15  1  0  0  0  0
 16 11  2  0  0  0  0
 16 18  1  0  0  0  0
 17 16  1  0  0  0  0
 18  2  2  0  0  0  0
 19  3  1  0  0  0  0
 19 18  1  0  0  0  0
 20  1  1  0  0  0  0
M  END
