1
 OpenBabel05122313063D

 21 21  0  0  0  0  0  0  0  0999 V2000
    2.0767   -1.1892   -1.8045 S   0  0  0  0  0  1  0  0  0  0  0  0
   -3.4040   -2.2776    1.7408 N   0  0  0  0  0  0  0  0  0  0  0  0
   -0.1110   -1.9396    0.3187 N   0  0  0  0  0  2  0  0  0  0  0  0
    0.8854   -2.8508    0.1129 N   0  0  0  0  0  2  0  0  0  0  0  0
    2.9398   -3.4368   -0.7214 N   0  0  0  0  0  4  0  0  0  0  0  0
    2.7555   -4.3382   -0.2736 H   0  0  0  0  0  0  0  0  0  0  0  0
    3.4875   -3.4693   -1.5824 H   0  0  0  0  0  0  0  0  0  0  0  0
   -1.2290   -3.7458    1.3366 N   0  0  0  0  0  4  0  0  0  0  0  0
   -0.5031   -4.3692    0.9825 H   0  0  0  0  0  0  0  0  0  0  0  0
   -2.1357   -4.0532    1.6960 H   0  0  0  0  0  0  0  0  0  0  0  0
   -4.4859   -1.5806    2.1092 C   0  0  0  0  0  0  0  0  0  0  0  0
   -5.3735   -2.1705    2.3995 H   0  0  0  0  0  0  0  0  0  0  0  0
   -4.5262   -0.1763    2.1372 C   0  0  0  0  0  0  0  0  0  0  0  0
   -5.4473    0.3467    2.4341 H   0  0  0  0  0  0  0  0  0  0  0  0
   -3.3629    0.5281    1.7937 C   0  0  0  0  0  0  0  0  0  0  0  0
   -3.3372    1.6281    1.8072 H   0  0  0  0  0  0  0  0  0  0  0  0
   -2.2198   -0.1886    1.4212 C   0  0  0  0  0  0  0  0  0  0  0  0
   -1.2824    0.3319    1.1811 H   0  0  0  0  0  0  0  0  0  0  0  0
   -2.2941   -1.5943    1.3779 C   0  0  0  0  0  0  0  0  0  0  0  0
   -1.1463   -2.4463    0.9743 C   0  0  0  0  0  0  0  0  0  0  0  0
    1.8662   -2.5664   -0.7076 C   0  0  0  0  0  0  0  0  0  0  0  0
  1 21  1  0  0  0  0
  2 11  1  0  0  0  0
  3 20  1  0  0  0  0
  4  3  1  0  0  0  0
  5 21  2  0  0  0  0
  5  6  1  0  0  0  0
  7  5  1  0  0  0  0
  8 10  1  0  0  0  0
  9  8  1  0  0  0  0
 11 13  2  0  0  0  0
 11 12  1  0  0  0  0
 13 14  1  0  0  0  0
 15 16  1  0  0  0  0
 15 13  1  0  0  0  0
 17 15  2  0  0  0  0
 18 17  1  0  0  0  0
 19 17  1  0  0  0  0
 19  2  2  0  0  0  0
 20  8  2  0  0  0  0
 20 19  1  0  0  0  0
 21  4  1  0  0  0  0
M  END
