1
 OpenBabel05122313063D

 18 18  0  0  0  0  0  0  0  0999 V2000
   -0.3613    0.3939   -0.6431 S   0  0  0  0  0  0  0  0  0  0  0  0
   -3.4115    0.8115    0.8406 O   0  0  0  0  0  0  0  0  0  0  0  0
   -4.7638    0.7666    0.5196 N   0  0  0  0  0  0  0  0  0  0  0  0
   -2.8128   -0.3474    0.4568 C   0  0  0  0  0  0  0  0  0  0  0  0
   -3.7506   -1.1693   -0.1229 C   0  0  0  0  0  0  0  0  0  0  0  0
   -4.9668   -0.4143   -0.0524 C   0  0  0  0  0  0  0  0  0  0  0  0
   -1.3536   -0.4590    0.6895 C   0  0  0  0  0  0  0  0  0  0  0  0
   -0.6477    2.1406   -0.1851 C   0  0  0  0  0  0  0  0  0  0  0  0
   -6.3329   -0.7996   -0.5211 C   0  0  0  0  0  0  0  0  0  0  0  0
   -3.5977   -2.1704   -0.5384 H   0  0  0  0  0  0  0  0  0  0  0  0
   -1.0502   -0.0295    1.6639 H   0  0  0  0  0  0  0  0  0  0  0  0
   -1.0247   -1.5134    0.6462 H   0  0  0  0  0  0  0  0  0  0  0  0
   -0.0903    2.7467   -0.9231 H   0  0  0  0  0  0  0  0  0  0  0  0
   -1.7312    2.3519   -0.2512 H   0  0  0  0  0  0  0  0  0  0  0  0
   -0.2663    2.3439    0.8323 H   0  0  0  0  0  0  0  0  0  0  0  0
   -6.6870   -1.7130   -0.0019 H   0  0  0  0  0  0  0  0  0  0  0  0
   -6.3332   -1.0143   -1.6088 H   0  0  0  0  0  0  0  0  0  0  0  0
   -7.0460    0.0210   -0.3205 H   0  0  0  0  0  0  0  0  0  0  0  0
  1  8  1  0  0  0  0
  1  7  1  0  0  0  0
  3  2  1  0  0  0  0
  4  7  1  0  0  0  0
  4  2  1  0  0  0  0
  5  6  1  0  0  0  0
  5  4  2  0  0  0  0
  6  3  2  0  0  0  0
  7 11  1  0  0  0  0
  8 15  1  0  0  0  0
  9 18  1  0  0  0  0
  9  6  1  0  0  0  0
  9 16  1  0  0  0  0
 10  5  1  0  0  0  0
 12  7  1  0  0  0  0
 13  8  1  0  0  0  0
 14  8  1  0  0  0  0
 17  9  1  0  0  0  0
M  END
