1
 OpenBabel05122313063D

 11 11  0  0  1  0  0  0  0  0999 V2000
   -0.5718   -1.0830    2.4113 S   0  0  0  0  0  1  0  0  0  0  0  0
   -3.1052   -1.3684    3.2212 N   0  0  0  0  0  0  0  0  0  0  0  0
   -2.6434   -2.0380    0.9990 N   0  0  0  0  0  0  0  0  0  0  0  0
   -1.9216   -2.2398    0.2364 H   0  0  0  0  0  0  0  0  0  0  0  0
   -2.2056   -1.5210    2.2127 C   0  0  1  0  0  3  0  0  0  0  0  0
   -4.3843   -1.6233    2.9821 C   0  0  0  0  0  0  0  0  0  0  0  0
   -5.0776   -1.4790    3.8320 H   0  0  0  0  0  0  0  0  0  0  0  0
   -4.8889   -2.0597    1.7287 C   0  0  0  0  0  0  0  0  0  0  0  0
   -5.9574   -2.2322    1.5506 H   0  0  0  0  0  0  0  0  0  0  0  0
   -3.9428   -2.2862    0.7431 C   0  0  0  0  0  0  0  0  0  0  0  0
   -4.1698   -2.6549   -0.2678 H   0  0  0  0  0  0  0  0  0  0  0  0
  3  5  1  0  0  0  0
  4  3  1  0  0  0  0
  5  1  1  6  0  0  0
  5  2  1  0  0  0  0
  6  2  2  0  0  0  0
  6  7  1  0  0  0  0
  8  6  1  0  0  0  0
  9  8  1  0  0  0  0
 10  3  1  0  0  0  0
 10  8  2  0  0  0  0
 11 10  1  0  0  0  0
M  END
