3
 OpenBabel05122313063D

 55 59  0  0  1  0  0  0  0  0999 V2000
   -1.6120    0.0619    0.0886 As  0  0  1  0  0  0  0  0  0  0  0  0
    1.8894    0.4387   -0.2291 P   0  0  0  0  0  4  0  0  0  0  0  0
    1.0687   -0.4357   -1.8739 S   0  0  0  0  0  1  0  0  0  0  0  0
   -3.4257    0.4986   -0.4442 C   0  0  0  0  0  0  0  0  0  0  0  0
   -3.7523    1.7663   -0.9634 C   0  0  0  0  0  0  0  0  0  0  0  0
   -2.9823    2.5434   -1.0700 H   0  0  0  0  0  0  0  0  0  0  0  0
   -5.0707    2.0369   -1.3607 C   0  0  0  0  0  0  0  0  0  0  0  0
   -5.3250    3.0277   -1.7672 H   0  0  0  0  0  0  0  0  0  0  0  0
   -6.0587    1.0463   -1.2445 C   0  0  0  0  0  0  0  0  0  0  0  0
   -7.0918    1.2615   -1.5574 H   0  0  0  0  0  0  0  0  0  0  0  0
   -5.7257   -0.2220   -0.7418 C   0  0  0  0  0  0  0  0  0  0  0  0
   -6.4951   -1.0050   -0.6630 H   0  0  0  0  0  0  0  0  0  0  0  0
   -4.4100   -0.5054   -0.3458 C   0  0  0  0  0  0  0  0  0  0  0  0
   -4.1278   -1.5034    0.0279 H   0  0  0  0  0  0  0  0  0  0  0  0
   -0.5831    1.7951    0.2144 C   0  0  1  0  0  0  0  0  0  0  0  0
   -0.3639    2.3098   -0.7381 H   0  0  0  0  0  0  0  0  0  0  0  0
   -1.4021    2.5808    1.2224 C   0  0  0  0  0  0  0  0  0  0  0  0
   -1.5732    4.0595    1.0634 C   0  0  0  0  0  0  0  0  0  0  0  0
   -2.2102    4.4959    1.8559 H   0  0  0  0  0  0  0  0  0  0  0  0
   -2.0324    4.3128    0.0831 H   0  0  0  0  0  0  0  0  0  0  0  0
   -0.5929    4.5853    1.0925 H   0  0  0  0  0  0  0  0  0  0  0  0
   -2.6971    2.1577    3.4087 C   0  0  0  0  0  0  0  0  0  0  0  0
   -2.9725    3.2294    3.4088 H   0  0  0  0  0  0  0  0  0  0  0  0
   -2.1777    1.9356    4.3660 H   0  0  0  0  0  0  0  0  0  0  0  0
   -3.6359    1.5628    3.4181 H   0  0  0  0  0  0  0  0  0  0  0  0
   -1.8559    1.7782    2.2322 C   0  0  0  0  0  0  0  0  0  0  0  0
   -1.3836    0.3534    2.0585 C   0  0  2  0  0  0  0  0  0  0  0  0
   -1.8683   -0.4166    2.6824 H   0  0  0  0  0  0  0  0  0  0  0  0
    0.1666    0.3025    2.0933 C   0  0  0  0  0  0  0  0  0  0  0  0
    0.5152   -0.7422    1.9594 H   0  0  0  0  0  0  0  0  0  0  0  0
    0.5469    0.6536    3.0728 H   0  0  0  0  0  0  0  0  0  0  0  0
    0.6756    1.2427    0.9483 C   0  0  1  0  0  0  0  0  0  0  0  0
    1.2500    2.0894    1.3788 H   0  0  0  0  0  0  0  0  0  0  0  0
    2.9431   -0.6458    0.7904 C   0  0  0  0  0  0  0  0  0  0  0  0
    3.7168   -0.0570    1.8152 C   0  0  0  0  0  0  0  0  0  0  0  0
    3.7128    1.0348    1.9636 H   0  0  0  0  0  0  0  0  0  0  0  0
    4.5060   -0.8698    2.6388 C   0  0  0  0  0  0  0  0  0  0  0  0
    5.1118   -0.4152    3.4372 H   0  0  0  0  0  0  0  0  0  0  0  0
    4.5247   -2.2622    2.4409 C   0  0  0  0  0  0  0  0  0  0  0  0
    5.1436   -2.8986    3.0917 H   0  0  0  0  0  0  0  0  0  0  0  0
    3.7596   -2.8385    1.4164 C   0  0  0  0  0  0  0  0  0  0  0  0
    3.7668   -3.9271    1.2570 H   0  0  0  0  0  0  0  0  0  0  0  0
    2.9650   -2.0364    0.5808 C   0  0  0  0  0  0  0  0  0  0  0  0
    2.3538   -2.5056   -0.2130 H   0  0  0  0  0  0  0  0  0  0  0  0
    2.9996    1.7616   -0.8276 C   0  0  0  0  0  0  0  0  0  0  0  0
    2.6469    3.1255   -0.7925 C   0  0  0  0  0  0  0  0  0  0  0  0
    1.6938    3.4488   -0.3491 H   0  0  0  0  0  0  0  0  0  0  0  0
    3.5152    4.0873   -1.3314 C   0  0  0  0  0  0  0  0  0  0  0  0
    3.2371    5.1513   -1.2980 H   0  0  0  0  0  0  0  0  0  0  0  0
    4.7303    3.6937   -1.9123 C   0  0  0  0  0  0  0  0  0  0  0  0
    5.4084    4.4504   -2.3349 H   0  0  0  0  0  0  0  0  0  0  0  0
    5.0806    2.3340   -1.9554 C   0  0  0  0  0  0  0  0  0  0  0  0
    6.0319    2.0221   -2.4118 H   0  0  0  0  0  0  0  0  0  0  0  0
    4.2205    1.3685   -1.4163 C   0  0  0  0  0  0  0  0  0  0  0  0
    4.4938    0.3027   -1.4488 H   0  0  0  0  0  0  0  0  0  0  0  0
  1  4  1  1  0  0  0
  1 15  1  0  0  0  0
  1 27  1  0  0  0  0
  2 34  1  0  0  0  0
  2 32  1  0  0  0  0
  3  2  1  0  0  0  0
  4 13  1  0  0  0  0
  5  4  2  0  0  0  0
  6  5  1  0  0  0  0
  7  9  2  0  0  0  0
  7  5  1  0  0  0  0
  8  7  1  0  0  0  0
  9 11  1  0  0  0  0
 10  9  1  0  0  0  0
 11 12  1  0  0  0  0
 11 13  2  0  0  0  0
 13 14  1  0  0  0  0
 15 16  1  6  0  0  0
 15 32  1  0  0  0  0
 15 17  1  0  0  0  0
 17 26  2  0  0  0  0
 18 21  1  0  0  0  0
 18 17  1  0  0  0  0
 18 19  1  0  0  0  0
 20 18  1  0  0  0  0
 22 23  1  0  0  0  0
 22 25  1  0  0  0  0
 22 24  1  0  0  0  0
 26 22  1  0  0  0  0
 27 29  1  0  0  0  0
 27 26  1  0  0  0  0
 27 28  1  1  0  0  0
 29 31  1  0  0  0  0
 30 29  1  0  0  0  0
 32 33  1  1  0  0  0
 32 29  1  0  0  0  0
 34 35  1  0  0  0  0
 35 36  1  0  0  0  0
 35 37  2  0  0  0  0
 37 38  1  0  0  0  0
 39 37  1  0  0  0  0
 39 40  1  0  0  0  0
 41 39  2  0  0  0  0
 42 41  1  0  0  0  0
 43 34  2  0  0  0  0
 43 41  1  0  0  0  0
 44 43  1  0  0  0  0
 45 46  1  0  0  0  0
 45  2  1  0  0  0  0
 46 47  1  0  0  0  0
 48 49  1  0  0  0  0
 48 46  2  0  0  0  0
 50 48  1  0  0  0  0
 51 50  1  0  0  0  0
 52 50  2  0  0  0  0
 52 54  1  0  0  0  0
 53 52  1  0  0  0  0
 54 45  2  0  0  0  0
 55 54  1  0  0  0  0
M  END
