1
 OpenBabel05122313063D

 18 19  0  0  1  0  0  0  0  0999 V2000
    2.3035   -1.4085   -1.9362 S   0  0  0  0  0  1  0  0  0  0  0  0
    2.2793    3.3207    0.2428 S   0  0  0  0  0  0  0  0  0  0  0  0
    3.3193    0.8587   -0.9341 N   0  0  0  0  0  0  0  0  0  0  0  0
    4.8716   -0.7301   -1.7106 N   0  0  0  0  0  0  0  0  0  0  0  0
    5.0156   -1.6511   -2.1346 H   0  0  0  0  0  0  0  0  0  0  0  0
    4.3272    1.6456   -0.5385 C   0  0  0  0  0  0  0  0  0  0  0  0
    3.9718    2.9059    0.0812 C   0  0  0  0  0  0  0  0  0  0  0  0
    3.5428   -0.3520   -1.5034 C   0  0  1  0  0  3  0  0  0  0  0  0
    5.9241    0.0377   -1.3191 C   0  0  0  0  0  0  0  0  0  0  0  0
    6.9277   -0.3672   -1.5119 H   0  0  0  0  0  0  0  0  0  0  0  0
    5.6989    1.2511   -0.7146 C   0  0  0  0  0  0  0  0  0  0  0  0
    6.5365    1.8786   -0.3905 H   0  0  0  0  0  0  0  0  0  0  0  0
    4.7911    3.9026    0.6185 C   0  0  0  0  0  0  0  0  0  0  0  0
    5.8880    3.8465    0.6264 H   0  0  0  0  0  0  0  0  0  0  0  0
    2.6815    4.8017    1.0211 C   0  0  0  0  0  0  0  0  0  0  0  0
    1.8787    5.4763    1.3450 H   0  0  0  0  0  0  0  0  0  0  0  0
    4.0524    4.9859    1.1566 C   0  0  0  0  0  0  0  0  0  0  0  0
    4.5024    5.8698    1.6279 H   0  0  0  0  0  0  0  0  0  0  0  0
  2 15  1  0  0  0  0
  3  6  2  0  0  0  0
  4  8  1  0  0  0  0
  4  9  1  0  0  0  0
  5  4  1  0  0  0  0
  6  7  1  0  0  0  0
  7  2  1  0  0  0  0
  7 13  2  0  0  0  0
  8  1  1  1  0  0  0
  8  3  1  0  0  0  0
  9 11  2  0  0  0  0
 10  9  1  0  0  0  0
 11  6  1  0  0  0  0
 11 12  1  0  0  0  0
 13 14  1  0  0  0  0
 13 17  1  0  0  0  0
 15 17  2  0  0  0  0
 15 16  1  0  0  0  0
 17 18  1  0  0  0  0
M  END
