1
 OpenBabel05122313063D

 17 17  0  0  1  0  0  0  0  0999 V2000
    0.8448   -0.5936   -1.8703 S   0  0  0  0  0  1  0  0  0  0  0  0
   -2.1751   -2.3961   -0.1165 N   0  0  0  0  0  0  0  0  0  0  0  0
   -0.8474   -2.1059   -0.2745 N   0  0  0  0  0  0  0  0  0  0  0  0
   -0.2136   -2.1304    0.5482 H   0  0  0  0  0  0  0  0  0  0  0  0
   -1.8683   -1.0567   -1.8550 N   0  0  0  0  0  0  0  0  0  0  0  0
   -2.1800   -0.1107   -2.8265 N   0  0  0  0  0  0  0  0  0  0  0  0
   -0.5958   -1.2648   -1.3202 C   0  0  1  0  0  3  0  0  0  0  0  0
   -2.7875   -1.7686   -1.0958 C   0  0  0  0  0  0  0  0  0  0  0  0
   -4.2488   -1.8361   -1.3930 C   0  0  0  0  0  0  0  0  0  0  0  0
   -4.3807   -2.2272   -2.4258 H   0  0  0  0  0  0  0  0  0  0  0  0
   -4.6538   -0.8023   -1.4318 H   0  0  0  0  0  0  0  0  0  0  0  0
   -5.0093   -2.6916   -0.3812 C   0  0  0  0  0  0  0  0  0  0  0  0
   -6.0940   -2.6889   -0.6026 H   0  0  0  0  0  0  0  0  0  0  0  0
   -4.8521   -2.3165    0.6486 H   0  0  0  0  0  0  0  0  0  0  0  0
   -4.6494   -3.7383   -0.3982 H   0  0  0  0  0  0  0  0  0  0  0  0
   -1.7651   -0.4215   -3.7194 H   0  0  0  0  0  0  0  0  0  0  0  0
   -1.6496    0.7428   -2.5501 H   0  0  0  0  0  0  0  0  0  0  0  0
  3  2  1  0  0  0  0
  3  4  1  0  0  0  0
  5  7  1  0  0  0  0
  5  8  1  0  0  0  0
  6 17  1  0  0  0  0
  6  5  1  0  0  0  0
  7  1  1  1  0  0  0
  7  3  1  0  0  0  0
  8  2  2  0  0  0  0
  9  8  1  0  0  0  0
  9 12  1  0  0  0  0
 10  9  1  0  0  0  0
 11  9  1  0  0  0  0
 12 14  1  0  0  0  0
 13 12  1  0  0  0  0
 15 12  1  0  0  0  0
 16  6  1  0  0  0  0
M  END
