1
 OpenBabel05122313063D

 27 28  0  0  1  0  0  0  0  0999 V2000
   -0.5865   -2.0181   -0.0453 S   0  0  0  0  0  1  0  0  0  0  0  0
    7.4841    0.5652    1.0799 O   0  0  0  0  0  0  0  0  0  0  0  0
    4.9058    0.8791    1.1689 O   0  0  0  0  0  0  0  0  0  0  0  0
    5.6972    1.2746    1.5988 H   0  0  0  0  0  0  0  0  0  0  0  0
    2.4500    0.4639   -0.4080 N   0  0  0  0  0  0  0  0  0  0  0  0
    1.1316    0.1759   -0.3148 N   0  0  0  0  0  0  0  0  0  0  0  0
    0.3984    0.9225   -0.3128 H   0  0  0  0  0  0  0  0  0  0  0  0
    2.1299   -1.7300   -0.1844 N   0  0  0  0  0  0  0  0  0  0  0  0
    0.8876   -1.1403   -0.1836 C   0  0  2  0  0  3  0  0  0  0  0  0
    3.0681   -0.7022   -0.3336 C   0  0  0  0  0  0  0  0  0  0  0  0
    4.5175   -0.9105   -0.4013 C   0  0  0  0  0  0  0  0  0  0  0  0
    5.3790   -0.0890    0.3583 C   0  0  0  0  0  0  0  0  0  0  0  0
    6.7869   -0.2955    0.2827 C   0  0  0  0  0  0  0  0  0  0  0  0
    7.3219   -1.2956   -0.5345 C   0  0  0  0  0  0  0  0  0  0  0  0
    8.4079   -1.4500   -0.5900 H   0  0  0  0  0  0  0  0  0  0  0  0
    6.4555   -2.1052   -1.2973 C   0  0  0  0  0  0  0  0  0  0  0  0
    6.8760   -2.8798   -1.9539 H   0  0  0  0  0  0  0  0  0  0  0  0
    5.0754   -1.9171   -1.2328 C   0  0  0  0  0  0  0  0  0  0  0  0
    4.4102   -2.5292   -1.8582 H   0  0  0  0  0  0  0  0  0  0  0  0
    8.9022    0.4685    1.1151 C   0  0  0  0  0  0  0  0  0  0  0  0
    9.2290   -0.5293    1.4799 H   0  0  0  0  0  0  0  0  0  0  0  0
    9.2525    1.2465    1.8167 H   0  0  0  0  0  0  0  0  0  0  0  0
    9.3430    0.6539    0.1117 H   0  0  0  0  0  0  0  0  0  0  0  0
    2.3662   -3.1493    0.0288 C   0  0  0  0  0  0  0  0  0  0  0  0
    1.6570   -3.5189    0.7945 H   0  0  0  0  0  0  0  0  0  0  0  0
    3.4039   -3.2891    0.3787 H   0  0  0  0  0  0  0  0  0  0  0  0
    2.2112   -3.7232   -0.9063 H   0  0  0  0  0  0  0  0  0  0  0  0
  2 20  1  0  0  0  0
  3  4  1  0  0  0  0
  5 10  2  0  0  0  0
  5  6  1  0  0  0  0
  6  7  1  0  0  0  0
  6  9  1  0  0  0  0
  8  9  1  0  0  0  0
  8 24  1  0  0  0  0
  9  1  1  6  0  0  0
 10  8  1  0  0  0  0
 11 10  1  0  0  0  0
 11 12  1  0  0  0  0
 12  3  1  0  0  0  0
 13 12  2  0  0  0  0
 13  2  1  0  0  0  0
 14 13  1  0  0  0  0
 15 14  1  0  0  0  0
 16 18  1  0  0  0  0
 16 14  2  0  0  0  0
 17 16  1  0  0  0  0
 18 11  2  0  0  0  0
 19 18  1  0  0  0  0
 20 21  1  0  0  0  0
 20 22  1  0  0  0  0
 23 20  1  0  0  0  0
 24 26  1  0  0  0  0
 24 25  1  0  0  0  0
 27 24  1  0  0  0  0
M  END
