1
 OpenBabel05122313063D

 51 50  0  0  0  0  0  0  0  0999 V2000
    4.3963   -0.6710    0.9131 S   0  0  0  0  0  1  0  0  0  0  0  0
  -10.2489   -0.9341    0.6297 S   0  0  0  0  0  0  0  0  0  0  0  0
    4.0114   -2.2644    0.0505 C   0  0  0  0  0  0  0  0  0  0  0  0
    4.0511   -2.0941   -1.0444 H   0  0  0  0  0  0  0  0  0  0  0  0
    4.8059   -2.9927    0.3102 H   0  0  0  0  0  0  0  0  0  0  0  0
    2.6342   -2.7692    0.4838 C   0  0  0  0  0  0  0  0  0  0  0  0
    2.5076   -3.8038    0.0926 H   0  0  0  0  0  0  0  0  0  0  0  0
    2.6080   -2.8584    1.5929 H   0  0  0  0  0  0  0  0  0  0  0  0
    1.4718   -1.8930    0.0086 C   0  0  0  0  0  0  0  0  0  0  0  0
    1.4872   -1.8395   -1.1036 H   0  0  0  0  0  0  0  0  0  0  0  0
    1.6383   -0.8503    0.3592 H   0  0  0  0  0  0  0  0  0  0  0  0
    0.1009   -2.3807    0.4806 C   0  0  0  0  0  0  0  0  0  0  0  0
   -0.0595   -3.4292    0.1396 H   0  0  0  0  0  0  0  0  0  0  0  0
    0.0910   -2.4255    1.5934 H   0  0  0  0  0  0  0  0  0  0  0  0
   -1.0619   -1.5087    0.0001 C   0  0  0  0  0  0  0  0  0  0  0  0
   -1.0562   -1.4687   -1.1128 H   0  0  0  0  0  0  0  0  0  0  0  0
   -0.8953   -0.4599    0.3350 H   0  0  0  0  0  0  0  0  0  0  0  0
   -2.4349   -1.9829    0.4828 C   0  0  0  0  0  0  0  0  0  0  0  0
   -2.6003   -3.0330    0.1505 H   0  0  0  0  0  0  0  0  0  0  0  0
   -2.4409   -2.0198    1.5959 H   0  0  0  0  0  0  0  0  0  0  0  0
   -3.5968   -1.1110   -0.0000 C   0  0  0  0  0  0  0  0  0  0  0  0
   -3.5931   -1.0767   -1.1132 H   0  0  0  0  0  0  0  0  0  0  0  0
   -3.4296   -0.0604    0.3295 H   0  0  0  0  0  0  0  0  0  0  0  0
   -4.9696   -1.5816    0.4871 C   0  0  0  0  0  0  0  0  0  0  0  0
   -5.1373   -2.6324    0.1591 H   0  0  0  0  0  0  0  0  0  0  0  0
   -4.9748   -1.6133    1.6002 H   0  0  0  0  0  0  0  0  0  0  0  0
   -6.1305   -0.7096    0.0014 C   0  0  0  0  0  0  0  0  0  0  0  0
   -5.9638    0.3414    0.3291 H   0  0  0  0  0  0  0  0  0  0  0  0
   -6.1283   -0.6802   -1.1117 H   0  0  0  0  0  0  0  0  0  0  0  0
   -7.5007   -1.1849    0.4948 C   0  0  0  0  0  0  0  0  0  0  0  0
   -7.5107   -1.2078    1.6068 H   0  0  0  0  0  0  0  0  0  0  0  0
   -7.6742   -2.2331    0.1656 H   0  0  0  0  0  0  0  0  0  0  0  0
   -8.6494   -0.3069    0.0004 C   0  0  0  0  0  0  0  0  0  0  0  0
   -8.6775   -0.2932   -1.1114 H   0  0  0  0  0  0  0  0  0  0  0  0
   -8.5115    0.7426    0.3420 H   0  0  0  0  0  0  0  0  0  0  0  0
  -11.3704    0.2979   -0.1250 C   0  0  0  0  0  0  0  0  0  0  0  0
  -11.0816    1.3148    0.2207 H   0  0  0  0  0  0  0  0  0  0  0  0
  -11.2465    0.2759   -1.2300 H   0  0  0  0  0  0  0  0  0  0  0  0
  -12.8201   -0.0013    0.2542 C   0  0  0  0  0  0  0  0  0  0  0  0
  -12.9145   -0.0014    1.3626 H   0  0  0  0  0  0  0  0  0  0  0  0
  -13.0776   -1.0324   -0.0745 H   0  0  0  0  0  0  0  0  0  0  0  0
  -13.8067    0.9999   -0.3523 C   0  0  0  0  0  0  0  0  0  0  0  0
  -13.5509    2.0320   -0.0309 H   0  0  0  0  0  0  0  0  0  0  0  0
  -13.7138    1.0065   -1.4592 H   0  0  0  0  0  0  0  0  0  0  0  0
  -15.2557    0.7051    0.0244 C   0  0  0  0  0  0  0  0  0  0  0  0
  -15.5609   -0.3155   -0.2955 H   0  0  0  0  0  0  0  0  0  0  0  0
  -15.3999    0.7088    1.1272 H   0  0  0  0  0  0  0  0  0  0  0  0
  -16.2424    1.6869   -0.5714 C   0  0  0  0  0  0  0  0  0  0  0  0
  -17.5189    1.3932   -0.2088 O   0  0  0  0  0  0  0  0  0  0  0  0
  -18.0747    2.0781   -0.6406 H   0  0  0  0  0  0  0  0  0  0  0  0
  -15.9642    2.6298   -1.2878 O   0  0  0  0  0  0  0  0  0  0  0  0
  3  5  1  0  0  0  0
  3  6  1  0  0  0  0
  3  1  1  0  0  0  0
  4  3  1  0  0  0  0
  6  8  1  0  0  0  0
  7  6  1  0  0  0  0
  9 11  1  0  0  0  0
  9 12  1  0  0  0  0
  9  6  1  0  0  0  0
 10  9  1  0  0  0  0
 12 14  1  0  0  0  0
 13 12  1  0  0  0  0
 15 17  1  0  0  0  0
 15 12  1  0  0  0  0
 15 18  1  0  0  0  0
 16 15  1  0  0  0  0
 18 20  1  0  0  0  0
 19 18  1  0  0  0  0
 21 23  1  0  0  0  0
 21 18  1  0  0  0  0
 21 24  1  0  0  0  0
 22 21  1  0  0  0  0
 24 26  1  0  0  0  0
 25 24  1  0  0  0  0
 27 28  1  0  0  0  0
 27 24  1  0  0  0  0
 27 30  1  0  0  0  0
 29 27  1  0  0  0  0
 30 31  1  0  0  0  0
 32 30  1  0  0  0  0
 33 35  1  0  0  0  0
 33 30  1  0  0  0  0
 33  2  1  0  0  0  0
 34 33  1  0  0  0  0
 36 37  1  0  0  0  0
 36 39  1  0  0  0  0
 36  2  1  0  0  0  0
 38 36  1  0  0  0  0
 39 40  1  0  0  0  0
 41 39  1  0  0  0  0
 42 43  1  0  0  0  0
 42 45  1  0  0  0  0
 42 39  1  0  0  0  0
 44 42  1  0  0  0  0
 45 47  1  0  0  0  0
 46 45  1  0  0  0  0
 48 49  1  0  0  0  0
 48 45  1  0  0  0  0
 50 49  1  0  0  0  0
 51 48  2  0  0  0  0
M  END
