1
 OpenBabel05122313063D

 11 10  0  0  0  0  0  0  0  0999 V2000
   -3.1872   -1.5353   -0.0273 S   0  0  0  0  0  1  0  0  0  0  0  0
   -5.5958   -0.5085    0.0006 N   0  0  0  0  0  0  0  0  0  0  0  0
   -5.7761   -1.5114   -0.0506 H   0  0  0  0  0  0  0  0  0  0  0  0
   -3.9994    1.1433    0.1055 N   0  0  0  0  0  0  0  0  0  0  0  0
   -1.7720    2.2518    0.1969 N   0  0  0  0  0  0  0  0  0  0  0  0
   -4.2839   -0.1447    0.0345 C   0  0  0  0  0  0  0  0  0  0  0  0
   -6.7108    0.4111    0.0525 C   0  0  0  0  0  0  0  0  0  0  0  0
   -7.3253    0.2560    0.9656 H   0  0  0  0  0  0  0  0  0  0  0  0
   -7.3673    0.2981   -0.8364 H   0  0  0  0  0  0  0  0  0  0  0  0
   -6.3030    1.4382    0.0690 H   0  0  0  0  0  0  0  0  0  0  0  0
   -2.8054    1.6644    0.1515 C   0  0  0  0  0  0  0  0  0  0  0  0
  1  6  1  0  0  0  0
  2  6  1  0  0  0  0
  2  7  1  0  0  0  0
  3  2  1  0  0  0  0
  4 11  1  0  0  0  0
  6  4  2  0  0  0  0
  7 10  1  0  0  0  0
  7  8  1  0  0  0  0
  9  7  1  0  0  0  0
 11  5  3  0  0  0  0
M  END
