2
 OpenBabel05122313063D

 32 33  0  0  0  0  0  0  0  0999 V2000
    0.0373    1.0628   -0.5060 S   0  0  0  0  0  0  0  0  0  0  0  0
    0.5620   -1.9247   -0.6143 S   0  0  0  0  0  1  0  0  0  0  0  0
   -4.4297   -2.5540   -0.0660 O   0  0  0  0  0  0  0  0  0  0  0  0
   -1.8196   -0.7859   -1.0626 N   0  0  0  0  0  0  0  0  0  0  0  0
   -6.6135    2.5899    0.2001 C   0  0  0  0  0  0  0  0  0  0  0  0
   -2.3362   -2.1523   -1.2580 C   0  0  0  0  0  0  0  0  0  0  0  0
   -5.6864    1.5415    0.3050 C   0  0  0  0  0  0  0  0  0  0  0  0
   -6.0375    0.5014    0.4039 H   0  0  0  0  0  0  0  0  0  0  0  0
   -0.5222   -0.5299   -0.7520 C   0  0  0  0  0  0  0  0  0  0  0  0
   -3.0636   -2.6930   -0.0726 C   0  0  0  0  0  0  0  0  0  0  0  0
   -6.1661    3.9144    0.0743 C   0  0  0  0  0  0  0  0  0  0  0  0
   -4.8815   -3.0232    1.1332 C   0  0  0  0  0  0  0  0  0  0  0  0
   -5.9657   -2.9933    1.2806 H   0  0  0  0  0  0  0  0  0  0  0  0
   -4.7876    4.1830    0.0537 C   0  0  0  0  0  0  0  0  0  0  0  0
   -4.3010    1.7988    0.2922 C   0  0  0  0  0  0  0  0  0  0  0  0
   -3.8636    3.1334    0.1600 C   0  0  0  0  0  0  0  0  0  0  0  0
   -2.7816    3.3425    0.1446 H   0  0  0  0  0  0  0  0  0  0  0  0
   -2.6462   -3.2469    1.1187 C   0  0  0  0  0  0  0  0  0  0  0  0
   -1.6062   -3.4574    1.3910 H   0  0  0  0  0  0  0  0  0  0  0  0
   -2.8156    0.2902   -1.0589 C   0  0  0  0  0  0  0  0  0  0  0  0
   -3.8285   -3.4614    1.9024 C   0  0  0  0  0  0  0  0  0  0  0  0
   -3.8916   -3.8929    2.9074 H   0  0  0  0  0  0  0  0  0  0  0  0
   -3.3012    0.6709    0.3545 C   0  0  0  0  0  0  0  0  0  0  0  0
   -3.0224   -2.1359   -2.1291 H   0  0  0  0  0  0  0  0  0  0  0  0
   -1.4786   -2.8057   -1.5081 H   0  0  0  0  0  0  0  0  0  0  0  0
   -2.4132    0.9742    0.9455 H   0  0  0  0  0  0  0  0  0  0  0  0
   -2.3605    1.1780   -1.5423 H   0  0  0  0  0  0  0  0  0  0  0  0
   -7.6924    2.3716    0.2188 H   0  0  0  0  0  0  0  0  0  0  0  0
   -3.7496   -0.2146    0.8458 H   0  0  0  0  0  0  0  0  0  0  0  0
   -4.4296    5.2196   -0.0426 H   0  0  0  0  0  0  0  0  0  0  0  0
   -3.6722   -0.0443   -1.6773 H   0  0  0  0  0  0  0  0  0  0  0  0
   -6.8916    4.7383   -0.0058 H   0  0  0  0  0  0  0  0  0  0  0  0
  3 12  1  0  0  0  0
  4 20  1  0  0  0  0
  4  9  1  0  0  0  0
  5 28  1  0  0  0  0
  5  7  1  0  0  0  0
  6  4  1  0  0  0  0
  6 10  1  0  0  0  0
  7  8  1  0  0  0  0
  9  2  1  0  0  0  0
  9  1  2  0  0  0  0
 10  3  1  0  0  0  0
 10 18  2  0  0  0  0
 11  5  2  0  0  0  0
 12 13  1  0  0  0  0
 12 21  2  0  0  0  0
 14 11  1  0  0  0  0
 14 16  2  0  0  0  0
 15  7  2  0  0  0  0
 15 23  1  0  0  0  0
 16 15  1  0  0  0  0
 17 16  1  0  0  0  0
 18 19  1  0  0  0  0
 18 21  1  0  0  0  0
 20 23  1  0  0  0  0
 21 22  1  0  0  0  0
 23 29  1  0  0  0  0
 23 26  1  0  0  0  0
 24  6  1  0  0  0  0
 25  6  1  0  0  0  0
 27 20  1  0  0  0  0
 30 14  1  0  0  0  0
 31 20  1  0  0  0  0
 32 11  1  0  0  0  0
M  END
