1
 OpenBabel05122313063D

 35 37  0  0  1  0  0  0  0  0999 V2000
    0.9334    0.6376   -1.2034 S   0  0  0  0  0  1  0  0  0  0  0  0
    1.3600   -1.5398    0.3869 N   0  0  0  0  0  0  0  0  0  0  0  0
    2.0101   -2.2272    0.7805 H   0  0  0  0  0  0  0  0  0  0  0  0
    0.3524   -1.5870    0.5433 H   0  0  0  0  0  0  0  0  0  0  0  0
    3.9658   -1.5786   -0.0235 N   0  0  0  0  0  0  0  0  0  0  0  0
    4.1287    5.8703    1.1832 Cl  0  0  0  0  0  0  0  0  0  0  0  0
    1.8647   -0.5885   -0.4147 C   0  0  1  0  0  3  0  0  0  0  0  0
    3.2013   -0.6035   -0.6210 N   0  0  0  0  0  0  0  0  0  0  0  0
    5.2028   -1.4441   -0.4242 C   0  0  0  0  0  0  0  0  0  0  0  0
    6.2740   -2.3259    0.0310 C   0  0  0  0  0  0  0  0  0  0  0  0
    7.5919   -2.1555   -0.4553 C   0  0  0  0  0  0  0  0  0  0  0  0
    7.8175   -1.3569   -1.1770 H   0  0  0  0  0  0  0  0  0  0  0  0
    8.6215   -3.0018   -0.0248 C   0  0  0  0  0  0  0  0  0  0  0  0
    9.6419   -2.8603   -0.4102 H   0  0  0  0  0  0  0  0  0  0  0  0
    8.3516   -4.0256    0.8964 C   0  0  0  0  0  0  0  0  0  0  0  0
    9.1616   -4.6886    1.2351 H   0  0  0  0  0  0  0  0  0  0  0  0
    7.0448   -4.2029    1.3875 C   0  0  0  0  0  0  0  0  0  0  0  0
    6.8335   -5.0048    2.1104 H   0  0  0  0  0  0  0  0  0  0  0  0
    6.0139   -3.3631    0.9608 C   0  0  0  0  0  0  0  0  0  0  0  0
    4.9910   -3.4944    1.3408 H   0  0  0  0  0  0  0  0  0  0  0  0
    5.3788   -0.3108   -1.4145 C   0  0  0  0  0  0  0  0  0  0  0  0
    5.6419   -0.7155   -2.4140 H   0  0  0  0  0  0  0  0  0  0  0  0
    6.1881    0.3840   -1.1176 H   0  0  0  0  0  0  0  0  0  0  0  0
    3.9949    0.3881   -1.4026 C   0  0  2  0  0  0  0  0  0  0  0  0
    3.5607    0.4636   -2.4190 H   0  0  0  0  0  0  0  0  0  0  0  0
    3.9945    1.7554   -0.7477 C   0  0  0  0  0  0  0  0  0  0  0  0
    4.1888    1.8865    0.6414 C   0  0  0  0  0  0  0  0  0  0  0  0
    4.3000    0.9902    1.2723 H   0  0  0  0  0  0  0  0  0  0  0  0
    4.2301    3.1498    1.2420 C   0  0  0  0  0  0  0  0  0  0  0  0
    4.3772    3.2562    2.3257 H   0  0  0  0  0  0  0  0  0  0  0  0
    4.0810    4.2982    0.4437 C   0  0  0  0  0  0  0  0  0  0  0  0
    3.8889    4.1861   -0.9435 C   0  0  0  0  0  0  0  0  0  0  0  0
    3.7684    5.0929   -1.5523 H   0  0  0  0  0  0  0  0  0  0  0  0
    3.8440    2.9144   -1.5289 C   0  0  0  0  0  0  0  0  0  0  0  0
    3.6791    2.8260   -2.6141 H   0  0  0  0  0  0  0  0  0  0  0  0
  2  4  1  0  0  0  0
  2  3  1  0  0  0  0
  7  1  1  6  0  0  0
  7  2  1  0  0  0  0
  8  7  1  0  0  0  0
  8  5  1  0  0  0  0
  9  5  2  0  0  0  0
  9 10  1  0  0  0  0
 10 19  1  0  0  0  0
 11 13  1  0  0  0  0
 11 10  2  0  0  0  0
 12 11  1  0  0  0  0
 13 15  2  0  0  0  0
 14 13  1  0  0  0  0
 15 16  1  0  0  0  0
 15 17  1  0  0  0  0
 17 18  1  0  0  0  0
 19 20  1  0  0  0  0
 19 17  2  0  0  0  0
 21 24  1  0  0  0  0
 21 23  1  0  0  0  0
 21  9  1  0  0  0  0
 22 21  1  0  0  0  0
 24 25  1  6  0  0  0
 24 26  1  0  0  0  0
 24  8  1  0  0  0  0
 26 27  1  0  0  0  0
 27 29  2  0  0  0  0
 27 28  1  0  0  0  0
 29 30  1  0  0  0  0
 31  6  1  0  0  0  0
 31 29  1  0  0  0  0
 32 31  2  0  0  0  0
 33 32  1  0  0  0  0
 34 32  1  0  0  0  0
 34 26  2  0  0  0  0
 35 34  1  0  0  0  0
M  END
