1
 OpenBabel05122313063D

 23 23  0  0  0  0  0  0  0  0999 V2000
    2.0334   -1.6559   -1.1461 S   0  0  0  0  0  1  0  0  0  0  0  0
   11.3540    0.9152   -1.6322 O   0  0  0  0  0  0  0  0  0  0  0  0
   12.1868    2.1418   -0.0217 O   0  0  0  0  0  0  0  0  0  0  0  0
    2.8562   -0.0842    0.9359 N   0  0  0  0  0  4  0  0  0  0  0  0
    3.6152    0.4263    1.4003 H   0  0  0  0  0  0  0  0  0  0  0  0
    1.9179   -0.1460    1.3337 H   0  0  0  0  0  0  0  0  0  0  0  0
    4.4052   -0.6217   -0.6811 N   0  0  0  0  0  0  0  0  0  0  0  0
    4.6290   -1.1100   -1.5625 H   0  0  0  0  0  0  0  0  0  0  0  0
    5.3369    0.0823    0.0046 N   0  0  0  0  0  0  0  0  0  0  0  0
   11.2761    1.5316   -0.5722 N   0  0  0  0  0  0  0  0  0  0  0  0
    3.1352   -0.7156   -0.2053 C   0  0  0  0  0  0  0  0  0  0  0  0
    6.5333    0.1329   -0.4956 C   0  0  0  0  0  0  0  0  0  0  0  0
    6.7707   -0.3846   -1.4518 H   0  0  0  0  0  0  0  0  0  0  0  0
    7.6280    0.8537    0.1439 C   0  0  0  0  0  0  0  0  0  0  0  0
    8.8891    0.8533   -0.4899 C   0  0  0  0  0  0  0  0  0  0  0  0
    9.0694    0.3319   -1.4408 H   0  0  0  0  0  0  0  0  0  0  0  0
    9.9477    1.5385    0.1086 C   0  0  0  0  0  0  0  0  0  0  0  0
    9.8053    2.2271    1.3179 C   0  0  0  0  0  0  0  0  0  0  0  0
   10.6758    2.7474    1.7403 H   0  0  0  0  0  0  0  0  0  0  0  0
    8.5479    2.2248    1.9466 C   0  0  0  0  0  0  0  0  0  0  0  0
    8.4155    2.7595    2.8984 H   0  0  0  0  0  0  0  0  0  0  0  0
    7.4695    1.5477    1.3699 C   0  0  0  0  0  0  0  0  0  0  0  0
    6.4867    1.5450    1.8620 H   0  0  0  0  0  0  0  0  0  0  0  0
  1 11  1  0  0  0  0
  2 10  2  0  0  0  0
  4  6  1  0  0  0  0
  4  5  1  0  0  0  0
  7 11  1  0  0  0  0
  7  9  1  0  0  0  0
  8  7  1  0  0  0  0
 10  3  2  0  0  0  0
 10 17  1  0  0  0  0
 11  4  2  0  0  0  0
 12  9  2  0  0  0  0
 12 14  1  0  0  0  0
 13 12  1  0  0  0  0
 14 22  1  0  0  0  0
 15 17  1  0  0  0  0
 15 14  2  0  0  0  0
 16 15  1  0  0  0  0
 17 18  2  0  0  0  0
 18 19  1  0  0  0  0
 18 20  1  0  0  0  0
 20 21  1  0  0  0  0
 22 23  1  0  0  0  0
 22 20  2  0  0  0  0
M  END
