1
 OpenBabel05122313063D

 14 14  0  0  0  0  0  0  0  0999 V2000
   -0.4775   -1.0360   -1.4191 S   0  0  0  0  0  1  0  0  0  0  0  0
   -2.4004   -0.1431    0.2750 N   0  0  0  0  0  0  0  0  0  0  0  0
   -2.0982   -0.5764   -0.9756 C   0  0  0  0  0  0  0  0  0  0  0  0
   -3.1313   -0.6811   -1.9509 C   0  0  0  0  0  0  0  0  0  0  0  0
   -2.8782   -1.0333   -2.9606 H   0  0  0  0  0  0  0  0  0  0  0  0
   -4.4339   -0.3507   -1.5958 C   0  0  0  0  0  0  0  0  0  0  0  0
   -5.2429   -0.4351   -2.3380 H   0  0  0  0  0  0  0  0  0  0  0  0
   -4.7209    0.0812   -0.2835 C   0  0  0  0  0  0  0  0  0  0  0  0
   -5.7450    0.3368    0.0222 H   0  0  0  0  0  0  0  0  0  0  0  0
   -3.6675    0.1777    0.6322 C   0  0  0  0  0  0  0  0  0  0  0  0
   -3.8629    0.6558    2.0469 C   0  0  0  0  0  0  0  0  0  0  0  0
   -3.2767    0.0369    2.7547 H   0  0  0  0  0  0  0  0  0  0  0  0
   -4.9285    0.6298    2.3410 H   0  0  0  0  0  0  0  0  0  0  0  0
   -3.5093    1.7037    2.1578 H   0  0  0  0  0  0  0  0  0  0  0  0
  1  3  1  0  0  0  0
  2 10  1  0  0  0  0
  3  2  2  0  0  0  0
  4  6  2  0  0  0  0
  4  3  1  0  0  0  0
  5  4  1  0  0  0  0
  6  8  1  0  0  0  0
  7  6  1  0  0  0  0
  8  9  1  0  0  0  0
  8 10  2  0  0  0  0
 10 11  1  0  0  0  0
 11 14  1  0  0  0  0
 11 13  1  0  0  0  0
 11 12  1  0  0  0  0
M  END
