1
 OpenBabel05122313063D

 17 17  0  0  1  0  0  0  0  0999 V2000
    1.9637    1.0042   -0.8556 S   0  0  0  0  0  1  0  0  0  0  0  0
    1.2716   -1.2501    1.1470 S   0  0  0  0  0  0  0  0  0  0  0  0
    2.2699   -0.4300   -0.0412 C   0  0  1  0  0  3  0  0  0  0  0  0
    3.2923   -1.3144   -0.1147 N   0  0  0  0  0  0  0  0  0  0  0  0
    2.8306   -2.3551    0.7981 C   0  0  1  0  0  0  0  0  0  0  0  0
    3.7192   -2.6375    1.9857 C   0  0  0  0  0  0  0  0  0  0  0  0
    4.3884   -1.3415   -1.0672 C   0  0  0  0  0  0  0  0  0  0  0  0
    4.0235   -2.0300   -2.3838 C   0  0  0  0  0  0  0  0  0  0  0  0
    2.5047   -3.2710    0.2594 H   0  0  0  0  0  0  0  0  0  0  0  0
    4.6671   -3.1224    1.6667 H   0  0  0  0  0  0  0  0  0  0  0  0
    3.9626   -1.7014    2.5252 H   0  0  0  0  0  0  0  0  0  0  0  0
    3.2128   -3.3296    2.6874 H   0  0  0  0  0  0  0  0  0  0  0  0
    4.6774   -0.2845   -1.2466 H   0  0  0  0  0  0  0  0  0  0  0  0
    5.2529   -1.8356   -0.5760 H   0  0  0  0  0  0  0  0  0  0  0  0
    4.8853   -2.0116   -3.0799 H   0  0  0  0  0  0  0  0  0  0  0  0
    3.1749   -1.5085   -2.8693 H   0  0  0  0  0  0  0  0  0  0  0  0
    3.7376   -3.0890   -2.2226 H   0  0  0  0  0  0  0  0  0  0  0  0
  3  1  1  6  0  0  0
  3  2  1  0  0  0  0
  4  3  1  0  0  0  0
  4  5  1  0  0  0  0
  5  9  1  6  0  0  0
  5  2  1  0  0  0  0
  5  6  1  0  0  0  0
  6 11  1  0  0  0  0
  6 12  1  0  0  0  0
  7 14  1  0  0  0  0
  7  4  1  0  0  0  0
  8 17  1  0  0  0  0
  8  7  1  0  0  0  0
 10  6  1  0  0  0  0
 13  7  1  0  0  0  0
 15  8  1  0  0  0  0
 16  8  1  0  0  0  0
M  END
