1
 OpenBabel05122313063D

  9  8  0  0  0  0  0  0  0  0999 V2000
    1.3886   -1.0817   -0.3205 S   0  0  0  0  0  1  0  0  0  0  0  0
    2.5616    0.2628    0.2214 C   0  0  0  0  0  0  0  0  0  0  0  0
    2.5138    1.0906   -0.5156 H   0  0  0  0  0  0  0  0  0  0  0  0
    2.1811    0.6458    1.1923 H   0  0  0  0  0  0  0  0  0  0  0  0
    3.9416   -0.2934    0.3645 C   0  0  0  0  0  0  0  0  0  0  0  0
    4.0587   -1.0868    1.1258 H   0  0  0  0  0  0  0  0  0  0  0  0
    5.0079    0.0852   -0.3644 C   0  0  0  0  0  0  0  0  0  0  0  0
    4.9190    0.8613   -1.1434 H   0  0  0  0  0  0  0  0  0  0  0  0
    6.0022   -0.3642   -0.2107 H   0  0  0  0  0  0  0  0  0  0  0  0
  1  2  1  0  0  0  0
  2  5  1  0  0  0  0
  2  4  1  0  0  0  0
  3  2  1  0  0  0  0
  5  6  1  0  0  0  0
  7  9  1  0  0  0  0
  7  5  2  0  0  0  0
  8  7  1  0  0  0  0
M  END
