1
 OpenBabel05122313063D

 22 22  0  0  0  0  0  0  0  0999 V2000
    1.9225   -1.4037   -1.7996 S   0  0  0  0  0  1  0  0  0  0  0  0
   -0.7193   -0.3631   -0.3460 N   0  0  0  0  0  0  0  0  0  0  0  0
    0.2199   -2.0856   -1.8245 C   0  0  0  0  0  0  0  0  0  0  0  0
    0.0839   -2.5929   -2.8030 H   0  0  0  0  0  0  0  0  0  0  0  0
    0.1043   -2.8494   -1.0243 H   0  0  0  0  0  0  0  0  0  0  0  0
   -0.8459   -1.0111   -1.6566 C   0  0  0  0  0  0  0  0  0  0  0  0
   -0.6997   -0.2220   -2.4260 H   0  0  0  0  0  0  0  0  0  0  0  0
   -1.8627   -1.4557   -1.7919 H   0  0  0  0  0  0  0  0  0  0  0  0
   -1.6366    0.7466   -0.1528 C   0  0  0  0  0  0  0  0  0  0  0  0
   -1.4705    1.4831   -0.9685 H   0  0  0  0  0  0  0  0  0  0  0  0
   -1.3249    1.2777    0.7768 H   0  0  0  0  0  0  0  0  0  0  0  0
   -3.0989    0.3763   -0.0422 C   0  0  0  0  0  0  0  0  0  0  0  0
   -4.1088    1.3352   -0.2868 C   0  0  0  0  0  0  0  0  0  0  0  0
   -3.8277    2.3481   -0.6148 H   0  0  0  0  0  0  0  0  0  0  0  0
   -5.4489    0.9794   -0.1067 C   0  0  0  0  0  0  0  0  0  0  0  0
   -6.2517    1.7111   -0.2911 H   0  0  0  0  0  0  0  0  0  0  0  0
   -5.7528   -0.3292    0.3047 C   0  0  0  0  0  0  0  0  0  0  0  0
   -6.7920   -0.6586    0.4563 H   0  0  0  0  0  0  0  0  0  0  0  0
   -4.6836   -1.2140    0.5134 C   0  0  0  0  0  0  0  0  0  0  0  0
   -4.8795   -2.2550    0.8317 H   0  0  0  0  0  0  0  0  0  0  0  0
   -3.3958   -0.8798    0.3497 N   0  0  0  0  0  0  0  0  0  0  0  0
   -0.8617   -1.0652    0.3981 H   0  0  0  0  0  0  0  0  0  0  0  0
  2  9  1  0  0  0  0
  2 22  1  0  0  0  0
  3  1  1  0  0  0  0
  3  6  1  0  0  0  0
  3  5  1  0  0  0  0
  4  3  1  0  0  0  0
  6  2  1  0  0  0  0
  7  6  1  0  0  0  0
  8  6  1  0  0  0  0
  9 12  1  0  0  0  0
  9 11  1  0  0  0  0
 10  9  1  0  0  0  0
 12 21  1  0  0  0  0
 13 15  1  0  0  0  0
 13 12  2  0  0  0  0
 14 13  1  0  0  0  0
 15 17  2  0  0  0  0
 16 15  1  0  0  0  0
 17 18  1  0  0  0  0
 17 19  1  0  0  0  0
 19 20  1  0  0  0  0
 21 19  2  0  0  0  0
M  END
