1
 OpenBabel05122313063D

 18 18  0  0  0  0  0  0  0  0999 V2000
    1.1949    1.0288   -1.4109 S   0  0  0  0  0  1  0  0  0  0  0  0
    2.8146    0.8156   -0.5301 C   0  0  0  0  0  0  0  0  0  0  0  0
    3.1261   -0.6390   -0.1655 C   0  0  0  0  0  0  0  0  0  0  0  0
    4.5066   -0.7755    0.4939 C   0  0  0  0  0  0  0  0  0  0  0  0
    5.6079   -0.1819   -0.3934 C   0  0  0  0  0  0  0  0  0  0  0  0
    5.2958    1.2724   -0.7652 C   0  0  0  0  0  0  0  0  0  0  0  0
    3.9154    1.4030   -1.4259 C   0  0  0  0  0  0  0  0  0  0  0  0
    2.7681    1.4201    0.4020 H   0  0  0  0  0  0  0  0  0  0  0  0
    2.3343   -1.0336    0.5103 H   0  0  0  0  0  0  0  0  0  0  0  0
    3.0799   -1.2526   -1.0921 H   0  0  0  0  0  0  0  0  0  0  0  0
    4.4969   -0.2447    1.4728 H   0  0  0  0  0  0  0  0  0  0  0  0
    4.7152   -1.8420    0.7199 H   0  0  0  0  0  0  0  0  0  0  0  0
    6.5910   -0.2515    0.1158 H   0  0  0  0  0  0  0  0  0  0  0  0
    5.6931   -0.7879   -1.3229 H   0  0  0  0  0  0  0  0  0  0  0  0
    5.3251    1.9020    0.1524 H   0  0  0  0  0  0  0  0  0  0  0  0
    6.0741    1.6782   -1.4435 H   0  0  0  0  0  0  0  0  0  0  0  0
    3.9069    0.8578   -2.3957 H   0  0  0  0  0  0  0  0  0  0  0  0
    3.6848    2.4631   -1.6564 H   0  0  0  0  0  0  0  0  0  0  0  0
  1  2  1  0  0  0  0
  2  3  1  0  0  0  0
  2  8  1  0  0  0  0
  3  4  1  0  0  0  0
  3  9  1  0  0  0  0
  4 12  1  0  0  0  0
  4 11  1  0  0  0  0
  5 13  1  0  0  0  0
  5  4  1  0  0  0  0
  6  5  1  0  0  0  0
  6 15  1  0  0  0  0
  7  6  1  0  0  0  0
  7  2  1  0  0  0  0
 10  3  1  0  0  0  0
 14  5  1  0  0  0  0
 16  6  1  0  0  0  0
 17  7  1  0  0  0  0
 18  7  1  0  0  0  0
M  END
