1
 OpenBabel05122313063D

 24 24  0  0  0  0  0  0  0  0999 V2000
   -0.1504   -0.1002   -1.9782 S   0  0  0  0  0  1  0  0  0  0  0  0
    3.2512   -1.6648   -0.7583 N   0  0  0  0  0  0  0  0  0  0  0  0
    2.0255   -1.0858   -0.7192 N   0  0  0  0  0  0  0  0  0  0  0  0
    1.5635   -0.7532    0.1540 H   0  0  0  0  0  0  0  0  0  0  0  0
    1.9335   -1.4207   -2.9907 N   0  0  0  0  0  4  0  0  0  0  0  0
    2.8497   -1.8674   -2.8769 H   0  0  0  0  0  0  0  0  0  0  0  0
    1.5100   -1.2430   -3.8987 H   0  0  0  0  0  0  0  0  0  0  0  0
    5.9627   -2.9183    1.3134 C   0  0  0  0  0  0  0  0  0  0  0  0
    5.4865   -2.8941    2.3043 H   0  0  0  0  0  0  0  0  0  0  0  0
    7.2135   -3.5357    1.1717 C   0  0  0  0  0  0  0  0  0  0  0  0
    7.7058   -3.9751    2.0523 H   0  0  0  0  0  0  0  0  0  0  0  0
    7.8351   -3.5928   -0.0844 C   0  0  0  0  0  0  0  0  0  0  0  0
    8.8215   -4.0684   -0.1933 H   0  0  0  0  0  0  0  0  0  0  0  0
    7.1933   -3.0298   -1.2016 C   0  0  0  0  0  0  0  0  0  0  0  0
    7.6808   -3.0570   -2.1881 H   0  0  0  0  0  0  0  0  0  0  0  0
    5.9422   -2.4216   -1.0633 C   0  0  0  0  0  0  0  0  0  0  0  0
    5.4451   -1.9626   -1.9292 H   0  0  0  0  0  0  0  0  0  0  0  0
    5.3019   -2.3564    0.1975 C   0  0  0  0  0  0  0  0  0  0  0  0
    3.9669   -1.7244    0.3313 C   0  0  0  0  0  0  0  0  0  0  0  0
    1.3534   -0.9196   -1.8893 C   0  0  0  0  0  0  0  0  0  0  0  0
    3.5040   -1.1577    1.6447 C   0  0  0  0  0  0  0  0  0  0  0  0
    3.2566   -0.0797    1.5106 H   0  0  0  0  0  0  0  0  0  0  0  0
    4.2779   -1.2259    2.4271 H   0  0  0  0  0  0  0  0  0  0  0  0
    2.5813   -1.6526    2.0140 H   0  0  0  0  0  0  0  0  0  0  0  0
  1 20  1  0  0  0  0
  2  3  1  0  0  0  0
  2 19  2  0  0  0  0
  3  4  1  0  0  0  0
  5  6  1  0  0  0  0
  5 20  2  0  0  0  0
  7  5  1  0  0  0  0
  8  9  1  0  0  0  0
 10  8  1  0  0  0  0
 10 11  1  0  0  0  0
 12 10  2  0  0  0  0
 13 12  1  0  0  0  0
 14 16  2  0  0  0  0
 14 12  1  0  0  0  0
 15 14  1  0  0  0  0
 16 18  1  0  0  0  0
 17 16  1  0  0  0  0
 18 19  1  0  0  0  0
 18  8  2  0  0  0  0
 19 21  1  0  0  0  0
 20  3  1  0  0  0  0
 21 24  1  0  0  0  0
 21 23  1  0  0  0  0
 22 21  1  0  0  0  0
M  END
