1
 OpenBabel05122313063D

 27 27  0  0  0  0  0  0  0  0999 V2000
   -1.2567   -1.5826   -1.1703 S   0  0  0  0  0  0  0  0  0  0  0  0
   -3.3770    0.5879   -1.1690 N   0  0  0  0  0  0  0  0  0  0  0  0
   -2.6695   -1.4353   -0.0033 C   0  0  0  0  0  0  0  0  0  0  0  0
   -3.1552   -0.0051    0.0199 C   0  0  0  0  0  0  0  0  0  0  0  0
   -3.8487    1.8430   -1.1756 C   0  0  0  0  0  0  0  0  0  0  0  0
   -4.1412    2.5689   -0.0090 C   0  0  0  0  0  0  0  0  0  0  0  0
   -3.8994    1.9536    1.2282 C   0  0  0  0  0  0  0  0  0  0  0  0
   -3.3859    0.6496    1.2485 C   0  0  0  0  0  0  0  0  0  0  0  0
   -0.7083   -3.3722   -0.9518 C   0  0  0  0  0  0  0  0  0  0  0  0
   -1.8931   -4.2955   -1.2527 C   0  0  0  0  0  0  0  0  0  0  0  0
    0.3858   -3.5334   -2.0169 C   0  0  0  0  0  0  0  0  0  0  0  0
   -0.1416   -3.6080    0.4477 C   0  0  0  0  0  0  0  0  0  0  0  0
   -3.4844   -2.1002   -0.3586 H   0  0  0  0  0  0  0  0  0  0  0  0
   -2.3287   -1.7354    1.0071 H   0  0  0  0  0  0  0  0  0  0  0  0
   -4.0065    2.3003   -2.1692 H   0  0  0  0  0  0  0  0  0  0  0  0
   -4.5388    3.5929   -0.0734 H   0  0  0  0  0  0  0  0  0  0  0  0
   -4.0929    2.4872    2.1715 H   0  0  0  0  0  0  0  0  0  0  0  0
   -3.1280    0.1493    2.1924 H   0  0  0  0  0  0  0  0  0  0  0  0
   -2.6827   -4.2209   -0.4791 H   0  0  0  0  0  0  0  0  0  0  0  0
   -1.5457   -5.3502   -1.2656 H   0  0  0  0  0  0  0  0  0  0  0  0
   -2.3428   -4.0676   -2.2399 H   0  0  0  0  0  0  0  0  0  0  0  0
    0.7892   -4.5665   -1.9780 H   0  0  0  0  0  0  0  0  0  0  0  0
   -0.0121   -3.3545   -3.0362 H   0  0  0  0  0  0  0  0  0  0  0  0
    1.2244   -2.8317   -1.8348 H   0  0  0  0  0  0  0  0  0  0  0  0
    0.6978   -2.9159    0.6544 H   0  0  0  0  0  0  0  0  0  0  0  0
   -0.8951   -3.4417    1.2418 H   0  0  0  0  0  0  0  0  0  0  0  0
    0.2197   -4.6553    0.5313 H   0  0  0  0  0  0  0  0  0  0  0  0
  1  9  1  0  0  0  0
  1  3  1  0  0  0  0
  2  4  1  0  0  0  0
  3  4  1  0  0  0  0
  3 14  1  0  0  0  0
  4  8  2  0  0  0  0
  5  2  2  0  0  0  0
  5  6  1  0  0  0  0
  6  7  2  0  0  0  0
  7  8  1  0  0  0  0
  7 17  1  0  0  0  0
  8 18  1  0  0  0  0
  9 12  1  0  0  0  0
 10  9  1  0  0  0  0
 10 19  1  0  0  0  0
 11 22  1  0  0  0  0
 11 24  1  0  0  0  0
 11  9  1  0  0  0  0
 12 27  1  0  0  0  0
 12 25  1  0  0  0  0
 12 26  1  0  0  0  0
 13  3  1  0  0  0  0
 15  5  1  0  0  0  0
 16  6  1  0  0  0  0
 20 10  1  0  0  0  0
 21 10  1  0  0  0  0
 23 11  1  0  0  0  0
M  END
