1
 OpenBabel05122313063D

 42 45  0  0  1  0  0  0  0  0999 V2000
    2.4879   -1.5308   -0.7691 S   0  0  0  0  0  1  0  0  0  0  0  0
    1.2322   -3.6981    2.3584 O   0  0  0  0  0  0  0  0  0  0  0  0
    0.3145   -3.3164    0.2958 N   0  0  0  0  0  0  0  0  0  0  0  0
    0.4254   -2.8062   -0.5914 H   0  0  0  0  0  0  0  0  0  0  0  0
   -1.8230   -2.8796   -1.5189 N   0  0  0  0  0  0  0  0  0  0  0  0
   -4.1693    2.5992   -0.6089 N   0  0  0  0  0  0  0  0  0  0  0  0
   -4.6905    3.4719   -0.6652 H   0  0  0  0  0  0  0  0  0  0  0  0
    2.6258   -2.6117    0.7188 C   0  0  0  0  0  0  0  0  0  0  0  0
    3.3256   -3.4240    0.4286 H   0  0  0  0  0  0  0  0  0  0  0  0
    3.0782   -2.0717    1.5717 H   0  0  0  0  0  0  0  0  0  0  0  0
    1.3181   -3.2516    1.2146 C   0  0  0  0  0  0  0  0  0  0  0  0
   -1.0416   -3.6983    0.6539 C   0  0  2  0  0  0  0  0  0  0  0  0
   -0.9854   -4.5819    1.3213 H   0  0  0  0  0  0  0  0  0  0  0  0
   -1.7978   -4.0377   -0.6281 C   0  0  0  0  0  0  0  0  0  0  0  0
   -1.2853   -4.8679   -1.1554 H   0  0  0  0  0  0  0  0  0  0  0  0
   -2.8299   -4.3940   -0.3657 H   0  0  0  0  0  0  0  0  0  0  0  0
   -1.7694   -2.5528    1.3732 C   0  0  0  0  0  0  0  0  0  0  0  0
   -2.7729   -2.8982    1.7047 H   0  0  0  0  0  0  0  0  0  0  0  0
   -1.1943   -2.2759    2.2791 H   0  0  0  0  0  0  0  0  0  0  0  0
   -1.9057   -1.3517    0.4358 C   0  0  1  0  0  0  0  0  0  0  0  0
   -0.8709   -1.0078    0.1994 H   0  0  0  0  0  0  0  0  0  0  0  0
   -2.5499   -1.7402   -0.9366 C   0  0  1  0  0  0  0  0  0  0  0  0
   -3.6186   -2.0332   -0.7294 H   0  0  0  0  0  0  0  0  0  0  0  0
   -2.5731   -0.5407   -1.9222 C   0  0  0  0  0  0  0  0  0  0  0  0
   -1.5175   -0.3417   -2.2218 H   0  0  0  0  0  0  0  0  0  0  0  0
   -3.1316   -0.8028   -2.8414 H   0  0  0  0  0  0  0  0  0  0  0  0
   -3.1771    0.6636   -1.2661 C   0  0  0  0  0  0  0  0  0  0  0  0
   -3.1493    0.7629    0.1595 C   0  0  0  0  0  0  0  0  0  0  0  0
   -2.6053   -0.1664    1.0641 C   0  0  0  0  0  0  0  0  0  0  0  0
   -2.7334    0.1428    2.4252 C   0  0  0  0  0  0  0  0  0  0  0  0
   -2.3423   -0.5425    3.1909 H   0  0  0  0  0  0  0  0  0  0  0  0
   -3.3622    1.3514    2.8372 C   0  0  0  0  0  0  0  0  0  0  0  0
   -3.4415    1.5612    3.9149 H   0  0  0  0  0  0  0  0  0  0  0  0
   -3.8876    2.2865    1.9311 C   0  0  0  0  0  0  0  0  0  0  0  0
   -4.3682    3.2102    2.2860 H   0  0  0  0  0  0  0  0  0  0  0  0
   -3.7783    1.9720    0.5613 C   0  0  0  0  0  0  0  0  0  0  0  0
   -3.8217    1.8096   -1.7096 C   0  0  0  0  0  0  0  0  0  0  0  0
   -4.0774    2.1375   -2.7241 H   0  0  0  0  0  0  0  0  0  0  0  0
   -2.2528   -3.2521   -2.8561 C   0  0  0  0  0  0  0  0  0  0  0  0
   -2.0433   -2.4488   -3.5872 H   0  0  0  0  0  0  0  0  0  0  0  0
   -3.3448   -3.5063   -2.9186 H   0  0  0  0  0  0  0  0  0  0  0  0
   -1.6831   -4.1447   -3.1815 H   0  0  0  0  0  0  0  0  0  0  0  0
  1  8  1  0  0  0  0
  3 12  1  0  0  0  0
  3 11  1  0  0  0  0
  4  3  1  0  0  0  0
  5 22  1  0  0  0  0
  5 14  1  0  0  0  0
  6 36  1  0  0  0  0
  7  6  1  0  0  0  0
  8 11  1  0  0  0  0
  8 10  1  0  0  0  0
  9  8  1  0  0  0  0
 11  2  2  0  0  0  0
 12 13  1  1  0  0  0
 12 17  1  0  0  0  0
 14 16  1  0  0  0  0
 14 12  1  0  0  0  0
 15 14  1  0  0  0  0
 17 18  1  0  0  0  0
 17 19  1  0  0  0  0
 20 21  1  6  0  0  0
 20 29  1  0  0  0  0
 20 17  1  0  0  0  0
 22 23  1  1  0  0  0
 22 20  1  0  0  0  0
 24 27  1  0  0  0  0
 24 22  1  0  0  0  0
 25 24  1  0  0  0  0
 26 24  1  0  0  0  0
 27 28  1  0  0  0  0
 28 36  2  0  0  0  0
 28 29  1  0  0  0  0
 29 30  2  0  0  0  0
 30 32  1  0  0  0  0
 30 31  1  0  0  0  0
 32 33  1  0  0  0  0
 34 35  1  0  0  0  0
 34 32  2  0  0  0  0
 36 34  1  0  0  0  0
 37 27  2  0  0  0  0
 37  6  1  0  0  0  0
 38 37  1  0  0  0  0
 39  5  1  0  0  0  0
 40 39  1  0  0  0  0
 41 39  1  0  0  0  0
 42 39  1  0  0  0  0
M  END
