1
 OpenBabel05122313063D

 35 34  0  0  0  0  0  0  0  0999 V2000
    0.4532   -0.5142   -1.3247 S   0  0  0  0  0  1  0  0  0  0  0  0
    1.9679   -0.0387   -0.0057 P   0  0  0  0  0  4  0  0  0  0  0  0
    1.6665   -0.6707    1.7736 C   0  0  0  0  0  0  0  0  0  0  0  0
    3.4590   -0.9191   -0.7198 C   0  0  0  0  0  0  0  0  0  0  0  0
    4.2657   -0.6949    0.0122 H   0  0  0  0  0  0  0  0  0  0  0  0
    2.2955    1.8033    0.0525 C   0  0  0  0  0  0  0  0  0  0  0  0
    1.4495    2.1435    0.6869 H   0  0  0  0  0  0  0  0  0  0  0  0
    3.0206   -0.9712    2.4491 C   0  0  0  0  0  0  0  0  0  0  0  0
    3.6990   -0.0972    2.4755 H   0  0  0  0  0  0  0  0  0  0  0  0
    3.5551   -1.8173    1.9766 H   0  0  0  0  0  0  0  0  0  0  0  0
    2.8193   -1.2602    3.5013 H   0  0  0  0  0  0  0  0  0  0  0  0
    0.8180   -1.9545    1.7291 C   0  0  0  0  0  0  0  0  0  0  0  0
    0.7145   -2.3313    2.7677 H   0  0  0  0  0  0  0  0  0  0  0  0
    1.2774   -2.7555    1.1217 H   0  0  0  0  0  0  0  0  0  0  0  0
   -0.1991   -1.7867    1.3289 H   0  0  0  0  0  0  0  0  0  0  0  0
    0.9165    0.4124    2.5713 C   0  0  0  0  0  0  0  0  0  0  0  0
   -0.0099    0.7514    2.0674 H   0  0  0  0  0  0  0  0  0  0  0  0
    1.5449    1.3019    2.7725 H   0  0  0  0  0  0  0  0  0  0  0  0
    0.6268   -0.0182    3.5516 H   0  0  0  0  0  0  0  0  0  0  0  0
    3.2555   -2.4383   -0.8035 C   0  0  0  0  0  0  0  0  0  0  0  0
    2.3782   -2.6879   -1.4324 H   0  0  0  0  0  0  0  0  0  0  0  0
    3.1110   -2.9103    0.1856 H   0  0  0  0  0  0  0  0  0  0  0  0
    4.1536   -2.8970   -1.2645 H   0  0  0  0  0  0  0  0  0  0  0  0
    3.8535   -0.3430   -2.0872 C   0  0  0  0  0  0  0  0  0  0  0  0
    4.7037   -0.9288   -2.4919 H   0  0  0  0  0  0  0  0  0  0  0  0
    4.1730    0.7132   -2.0293 H   0  0  0  0  0  0  0  0  0  0  0  0
    3.0182   -0.4138   -2.8121 H   0  0  0  0  0  0  0  0  0  0  0  0
    3.6309    2.1550    0.7206 C   0  0  0  0  0  0  0  0  0  0  0  0
    4.5015    1.7704    0.1510 H   0  0  0  0  0  0  0  0  0  0  0  0
    3.7073    1.7862    1.7612 H   0  0  0  0  0  0  0  0  0  0  0  0
    3.7305    3.2588    0.7590 H   0  0  0  0  0  0  0  0  0  0  0  0
    2.1102    2.4965   -1.3029 C   0  0  0  0  0  0  0  0  0  0  0  0
    2.0593    3.5901   -1.1266 H   0  0  0  0  0  0  0  0  0  0  0  0
    1.1605    2.1939   -1.7806 H   0  0  0  0  0  0  0  0  0  0  0  0
    2.9470    2.3061   -2.0012 H   0  0  0  0  0  0  0  0  0  0  0  0
  1  2  1  0  0  0  0
  2  6  1  0  0  0  0
  2  3  1  0  0  0  0
  3  8  1  0  0  0  0
  3 16  1  0  0  0  0
  4  2  1  0  0  0  0
  4  5  1  0  0  0  0
  6  7  1  0  0  0  0
  6 28  1  0  0  0  0
  8  9  1  0  0  0  0
  8 11  1  0  0  0  0
 10  8  1  0  0  0  0
 12  3  1  0  0  0  0
 12 13  1  0  0  0  0
 14 12  1  0  0  0  0
 15 12  1  0  0  0  0
 16 18  1  0  0  0  0
 16 19  1  0  0  0  0
 17 16  1  0  0  0  0
 20  4  1  0  0  0  0
 20 22  1  0  0  0  0
 21 20  1  0  0  0  0
 23 20  1  0  0  0  0
 24 26  1  0  0  0  0
 24  4  1  0  0  0  0
 25 24  1  0  0  0  0
 27 24  1  0  0  0  0
 28 31  1  0  0  0  0
 28 30  1  0  0  0  0
 29 28  1  0  0  0  0
 32 33  1  0  0  0  0
 32  6  1  0  0  0  0
 34 32  1  0  0  0  0
 35 32  1  0  0  0  0
M  END
