1
 OpenBabel05122313063D

 26 27  0  0  0  0  0  0  0  0999 V2000
    2.2647    0.4930   -0.8559 S   0  0  0  0  0  0  0  0  0  0  0  0
    5.5007    0.7368    1.9129 Br  0  0  0  0  0  0  0  0  0  0  0  0
    4.3056   -0.8011   -2.5554 F   0  0  0  0  0  0  0  0  0  0  0  0
    5.8008   -3.0100   -2.0225 F   0  0  0  0  0  0  0  0  0  0  0  0
    5.4944   -4.3238    0.3544 F   0  0  0  0  0  0  0  0  0  0  0  0
    3.6998   -3.4309    2.2089 F   0  0  0  0  0  0  0  0  0  0  0  0
    2.2090   -1.2147    1.6999 F   0  0  0  0  0  0  0  0  0  0  0  0
    3.2254   -0.9474   -0.4382 C   0  0  0  0  0  0  0  0  0  0  0  0
    4.1460   -1.4245   -1.3884 C   0  0  0  0  0  0  0  0  0  0  0  0
    4.9201   -2.5664   -1.1243 C   0  0  0  0  0  0  0  0  0  0  0  0
    4.7616   -3.2430    0.0964 C   0  0  0  0  0  0  0  0  0  0  0  0
    3.8388   -2.7809    1.0526 C   0  0  0  0  0  0  0  0  0  0  0  0
    3.0707   -1.6434    0.7757 C   0  0  0  0  0  0  0  0  0  0  0  0
    3.8761    2.4559    0.2272 C   0  0  0  0  0  0  0  0  0  0  0  0
    5.1763    2.1874    0.7105 C   0  0  0  0  0  0  0  0  0  0  0  0
    6.2734    2.9827    0.3412 C   0  0  0  0  0  0  0  0  0  0  0  0
    7.2706    2.7519    0.7410 H   0  0  0  0  0  0  0  0  0  0  0  0
    6.0838    4.0605   -0.5343 C   0  0  0  0  0  0  0  0  0  0  0  0
    6.9464    4.6793   -0.8238 H   0  0  0  0  0  0  0  0  0  0  0  0
    4.8032    4.3451   -1.0356 C   0  0  0  0  0  0  0  0  0  0  0  0
    4.6504    5.1901   -1.7228 H   0  0  0  0  0  0  0  0  0  0  0  0
    3.7185    3.5483   -0.6564 C   0  0  0  0  0  0  0  0  0  0  0  0
    2.7083    3.7533   -1.0459 H   0  0  0  0  0  0  0  0  0  0  0  0
    2.6725    1.6363    0.5719 C   0  0  0  0  0  0  0  0  0  0  0  0
    1.7520    2.2493    0.6325 H   0  0  0  0  0  0  0  0  0  0  0  0
    2.7840    1.0226    1.4815 H   0  0  0  0  0  0  0  0  0  0  0  0
  1  8  1  0  0  0  0
  1 24  1  0  0  0  0
  3  9  1  0  0  0  0
  4 10  1  0  0  0  0
  8 13  1  0  0  0  0
  9 10  1  0  0  0  0
  9  8  2  0  0  0  0
 10 11  2  0  0  0  0
 11  5  1  0  0  0  0
 11 12  1  0  0  0  0
 12  6  1  0  0  0  0
 13 12  2  0  0  0  0
 13  7  1  0  0  0  0
 14 24  1  0  0  0  0
 14 15  1  0  0  0  0
 15  2  1  0  0  0  0
 16 15  2  0  0  0  0
 16 17  1  0  0  0  0
 18 16  1  0  0  0  0
 19 18  1  0  0  0  0
 20 22  1  0  0  0  0
 20 18  2  0  0  0  0
 21 20  1  0  0  0  0
 22 14  2  0  0  0  0
 23 22  1  0  0  0  0
 24 25  1  0  0  0  0
 24 26  1  0  0  0  0
M  END
