2
 OpenBabel05122313063D

 41 42  0  0  0  0  0  0  0  0999 V2000
   -1.0418   -1.2867   -0.0963 S   0  0  0  0  0  0  0  0  0  0  0  0
   -0.7109    1.7427    0.0703 S   0  0  0  0  0  1  0  0  0  0  0  0
   -3.0469    0.5188    0.0201 N   0  0  0  0  0  0  0  0  0  0  0  0
   -5.2246   -0.3095    0.0141 N   0  0  0  0  0  0  0  0  0  0  0  0
   -1.6699    0.2759   -0.0052 C   0  0  0  0  0  0  0  0  0  0  0  0
   -3.9679   -0.5212   -0.1252 C   0  0  0  0  0  0  0  0  0  0  0  0
   -3.4805   -1.4852   -0.3779 H   0  0  0  0  0  0  0  0  0  0  0  0
   -3.5720    1.8551    0.2101 C   0  0  0  0  0  0  0  0  0  0  0  0
   -3.7867    2.3166    1.5263 C   0  0  0  0  0  0  0  0  0  0  0  0
   -4.3261    3.6060    1.6852 C   0  0  0  0  0  0  0  0  0  0  0  0
   -4.4993    3.9902    2.7024 H   0  0  0  0  0  0  0  0  0  0  0  0
   -4.6456    4.3937    0.5711 C   0  0  0  0  0  0  0  0  0  0  0  0
   -5.0689    5.3996    0.7141 H   0  0  0  0  0  0  0  0  0  0  0  0
   -4.4310    3.9045   -0.7248 C   0  0  0  0  0  0  0  0  0  0  0  0
   -4.6839    4.5241   -1.5991 H   0  0  0  0  0  0  0  0  0  0  0  0
   -3.8919    2.6218   -0.9312 C   0  0  0  0  0  0  0  0  0  0  0  0
   -3.6473    2.0774   -2.3124 C   0  0  0  0  0  0  0  0  0  0  0  0
   -2.5748    1.8291   -2.4549 H   0  0  0  0  0  0  0  0  0  0  0  0
   -3.9392    2.8113   -3.0872 H   0  0  0  0  0  0  0  0  0  0  0  0
   -4.2263    1.1466   -2.4844 H   0  0  0  0  0  0  0  0  0  0  0  0
   -3.4372    1.4516    2.7064 C   0  0  0  0  0  0  0  0  0  0  0  0
   -3.9914    0.4906    2.6727 H   0  0  0  0  0  0  0  0  0  0  0  0
   -3.6832    1.9579    3.6587 H   0  0  0  0  0  0  0  0  0  0  0  0
   -2.3545    1.2064    2.7129 H   0  0  0  0  0  0  0  0  0  0  0  0
   -6.1502   -1.3563   -0.0848 C   0  0  0  0  0  0  0  0  0  0  0  0
   -7.2305   -1.1813   -0.9953 C   0  0  0  0  0  0  0  0  0  0  0  0
   -8.2149   -2.1791   -1.0823 C   0  0  0  0  0  0  0  0  0  0  0  0
   -9.0457   -2.0470   -1.7937 H   0  0  0  0  0  0  0  0  0  0  0  0
   -8.1572   -3.3224   -0.2726 C   0  0  0  0  0  0  0  0  0  0  0  0
   -8.9405   -4.0921   -0.3431 H   0  0  0  0  0  0  0  0  0  0  0  0
   -7.1057   -3.4702    0.6418 C   0  0  0  0  0  0  0  0  0  0  0  0
   -7.0696   -4.3552    1.2972 H   0  0  0  0  0  0  0  0  0  0  0  0
   -6.0866   -2.5060    0.7554 C   0  0  0  0  0  0  0  0  0  0  0  0
   -7.2783    0.0567   -1.8504 C   0  0  0  0  0  0  0  0  0  0  0  0
   -6.5229    0.0174   -2.6652 H   0  0  0  0  0  0  0  0  0  0  0  0
   -7.0322    0.9564   -1.2498 H   0  0  0  0  0  0  0  0  0  0  0  0
   -8.2721    0.1860   -2.3211 H   0  0  0  0  0  0  0  0  0  0  0  0
   -4.9934   -2.6747    1.7845 C   0  0  0  0  0  0  0  0  0  0  0  0
   -4.0177   -2.9637    1.3420 H   0  0  0  0  0  0  0  0  0  0  0  0
   -5.2676   -3.4579    2.5175 H   0  0  0  0  0  0  0  0  0  0  0  0
   -4.8125   -1.7315    2.3412 H   0  0  0  0  0  0  0  0  0  0  0  0
  1  5  2  0  0  0  0
  3  8  1  0  0  0  0
  5  3  1  0  0  0  0
  5  2  1  0  0  0  0
  6  4  2  0  0  0  0
  6  3  1  0  0  0  0
  7  6  1  0  0  0  0
  8  9  1  0  0  0  0
  9 10  2  0  0  0  0
  9 21  1  0  0  0  0
 10 11  1  0  0  0  0
 12 13  1  0  0  0  0
 12 10  1  0  0  0  0
 14 12  2  0  0  0  0
 15 14  1  0  0  0  0
 16 14  1  0  0  0  0
 16  8  2  0  0  0  0
 17 16  1  0  0  0  0
 18 17  1  0  0  0  0
 19 17  1  0  0  0  0
 20 17  1  0  0  0  0
 21 24  1  0  0  0  0
 21 23  1  0  0  0  0
 22 21  1  0  0  0  0
 25  4  1  0  0  0  0
 25 33  1  0  0  0  0
 26 25  2  0  0  0  0
 27 26  1  0  0  0  0
 27 29  2  0  0  0  0
 28 27  1  0  0  0  0
 29 31  1  0  0  0  0
 30 29  1  0  0  0  0
 31 33  2  0  0  0  0
 31 32  1  0  0  0  0
 33 38  1  0  0  0  0
 34 36  1  0  0  0  0
 34 26  1  0  0  0  0
 35 34  1  0  0  0  0
 37 34  1  0  0  0  0
 38 41  1  0  0  0  0
 38 40  1  0  0  0  0
 39 38  1  0  0  0  0
M  END
