1
 OpenBabel05122313063D

 14 13  0  0  1  0  0  0  0  0999 V2000
   -1.8553   -1.1905    0.0722 S   0  0  0  0  0  1  0  0  0  0  0  0
   -3.4083   -0.1582   -0.0102 C   0  0  1  0  0  0  0  0  0  0  0  0
   -4.5246   -1.0351   -0.5941 C   0  0  0  0  0  0  0  0  0  0  0  0
   -4.3084   -1.4424   -2.0509 C   0  0  0  0  0  0  0  0  0  0  0  0
   -3.7411    0.4006    1.3696 C   0  0  0  0  0  0  0  0  0  0  0  0
   -5.1419   -2.0705   -2.4242 H   0  0  0  0  0  0  0  0  0  0  0  0
   -3.3672   -2.0173   -2.1658 H   0  0  0  0  0  0  0  0  0  0  0  0
   -4.2341   -0.5508   -2.7080 H   0  0  0  0  0  0  0  0  0  0  0  0
   -4.6434   -1.9379    0.0461 H   0  0  0  0  0  0  0  0  0  0  0  0
   -5.4770   -0.4671   -0.4969 H   0  0  0  0  0  0  0  0  0  0  0  0
   -2.9162    1.0318    1.7543 H   0  0  0  0  0  0  0  0  0  0  0  0
   -3.9150   -0.4181    2.0979 H   0  0  0  0  0  0  0  0  0  0  0  0
   -4.6601    1.0233    1.3226 H   0  0  0  0  0  0  0  0  0  0  0  0
   -3.2005    0.6770   -0.7139 H   0  0  0  0  0  0  0  0  0  0  0  0
  2 14  1  6  0  0  0
  2  1  1  0  0  0  0
  2  5  1  0  0  0  0
  3 10  1  0  0  0  0
  3  2  1  0  0  0  0
  3  9  1  0  0  0  0
  4  3  1  0  0  0  0
  5 11  1  0  0  0  0
  5 12  1  0  0  0  0
  6  4  1  0  0  0  0
  7  4  1  0  0  0  0
  8  4  1  0  0  0  0
 13  5  1  0  0  0  0
M  END
