1
 OpenBabel05122313063D

 11 10  0  0  0  0  0  0  0  0999 V2000
    0.9986    1.6611   -0.0354 S   0  0  0  0  0  1  0  0  0  0  0  0
    5.4257   -0.8778   -0.9966 O   0  0  0  0  0  0  0  0  0  0  0  0
    6.2839   -1.1238   -0.5870 H   0  0  0  0  0  0  0  0  0  0  0  0
    5.2280    0.0353    1.0625 O   0  0  0  0  0  0  0  0  0  0  0  0
    2.6751    1.1091    0.5151 C   0  0  0  0  0  0  0  0  0  0  0  0
    3.2384    2.0455    0.6998 H   0  0  0  0  0  0  0  0  0  0  0  0
    2.5902    0.5888    1.4892 H   0  0  0  0  0  0  0  0  0  0  0  0
    3.3853    0.2380   -0.5128 C   0  0  0  0  0  0  0  0  0  0  0  0
    2.7950   -0.6802   -0.7290 H   0  0  0  0  0  0  0  0  0  0  0  0
    3.4901    0.7589   -1.4873 H   0  0  0  0  0  0  0  0  0  0  0  0
    4.7568   -0.1889   -0.0373 C   0  0  0  0  0  0  0  0  0  0  0  0
  1  5  1  0  0  0  0
  2  3  1  0  0  0  0
  2 11  1  0  0  0  0
  5  6  1  0  0  0  0
  5  7  1  0  0  0  0
  8 11  1  0  0  0  0
  8  5  1  0  0  0  0
  9  8  1  0  0  0  0
 10  8  1  0  0  0  0
 11  4  2  0  0  0  0
M  END
