5
 OpenBabel05122313063D

 19 20  0  0  1  0  0  0  0  0999 V2000
   -3.1381   -0.5229    0.5043 N   0  0  0  0  0  0  0  0  0  0  0  0
   -2.7179   -1.4864    0.6971 H   0  0  0  0  0  0  0  0  0  0  0  0
   -3.2748    1.6597    0.7266 N   0  0  0  0  0  0  0  0  0  0  0  0
   -2.9752    2.6169    0.9104 H   0  0  0  0  0  0  0  0  0  0  0  0
   -0.8518    0.6729    1.5055 S   0  0  0  0  0  1  0  0  0  0  0  0
   -2.4456    0.5771    0.8959 C   0  0  1  0  0  3  0  0  0  0  0  0
   -4.5103    1.2449    0.2361 C   0  0  0  0  0  0  0  0  0  0  0  0
   -4.4152   -0.1651    0.0977 C   0  0  0  0  0  0  0  0  0  0  0  0
   -5.4920   -0.9242   -0.3792 C   0  0  0  0  0  0  0  0  0  0  0  0
   -5.4060   -2.0156   -0.4807 H   0  0  0  0  0  0  0  0  0  0  0  0
   -6.6810   -0.2525   -0.7219 C   0  0  0  0  0  0  0  0  0  0  0  0
   -6.7542    1.1584   -0.5829 C   0  0  0  0  0  0  0  0  0  0  0  0
   -7.6896    1.6679   -0.8609 H   0  0  0  0  0  0  0  0  0  0  0  0
   -5.6837    1.9279   -0.1051 C   0  0  0  0  0  0  0  0  0  0  0  0
   -5.7661    3.0196   -0.0055 H   0  0  0  0  0  0  0  0  0  0  0  0
   -7.8806   -1.0212   -1.2191 C   0  0  0  0  0  0  0  0  0  0  0  0
   -8.6944   -1.0245   -0.4632 H   0  0  0  0  0  0  0  0  0  0  0  0
   -7.6275   -2.0753   -1.4414 H   0  0  0  0  0  0  0  0  0  0  0  0
   -8.2990   -0.5673   -2.1405 H   0  0  0  0  0  0  0  0  0  0  0  0
  1  2  1  0  0  0  0
  1  6  1  0  0  0  0
  3  6  1  0  0  0  0
  3  4  1  0  0  0  0
  6  5  1  1  0  0  0
  7  3  1  0  0  0  0
  8  7  1  0  0  0  0
  8  1  1  0  0  0  0
  9  8  2  0  0  0  0
 10  9  1  0  0  0  0
 11 12  2  0  0  0  0
 11  9  1  0  0  0  0
 12 14  1  0  0  0  0
 13 12  1  0  0  0  0
 14 15  1  0  0  0  0
 14  7  2  0  0  0  0
 16 11  1  0  0  0  0
 16 17  1  0  0  0  0
 18 16  1  0  0  0  0
 19 16  1  0  0  0  0
M  END
