2
 OpenBabel05122313063D

 12 12  0  0  0  0  0  0  0  0999 V2000
   -5.3458   -0.5400   -1.1813 Cl  0  0  0  0  0  0  0  0  0  0  0  0
   -2.2320   -0.9362   -0.7046 S   0  0  0  0  0  1  0  0  0  0  0  0
   -3.0986    0.3307    0.1563 C   0  0  0  0  0  0  0  0  0  0  0  0
   -4.4953    0.5105   -0.0596 C   0  0  0  0  0  0  0  0  0  0  0  0
   -5.2359    1.5059    0.5943 C   0  0  0  0  0  0  0  0  0  0  0  0
   -4.6072    2.3731    1.5001 C   0  0  0  0  0  0  0  0  0  0  0  0
   -3.2288    2.2236    1.7362 C   0  0  0  0  0  0  0  0  0  0  0  0
   -2.4973    1.2288    1.0802 C   0  0  0  0  0  0  0  0  0  0  0  0
   -6.3118    1.5869    0.3796 H   0  0  0  0  0  0  0  0  0  0  0  0
   -5.1900    3.1539    2.0123 H   0  0  0  0  0  0  0  0  0  0  0  0
   -2.7116    2.8923    2.4424 H   0  0  0  0  0  0  0  0  0  0  0  0
   -1.4177    1.1133    1.2655 H   0  0  0  0  0  0  0  0  0  0  0  0
  1  4  1  0  0  0  0
  2  3  1  0  0  0  0
  3  8  1  0  0  0  0
  4  3  2  0  0  0  0
  4  5  1  0  0  0  0
  5  6  2  0  0  0  0
  6  7  1  0  0  0  0
  6 10  1  0  0  0  0
  7 11  1  0  0  0  0
  8 12  1  0  0  0  0
  8  7  2  0  0  0  0
  9  5  1  0  0  0  0
M  END
