1
 OpenBabel05122313063D

 25 26  0  0  0  0  0  0  0  0999 V2000
   -1.8871   -2.4930    0.3477 S   0  0  0  0  0  1  0  0  0  0  0  0
   -6.7341    1.3889   -0.9711 N   0  0  0  0  0  0  0  0  0  0  0  0
   -5.8715    0.8559   -1.0963 H   0  0  0  0  0  0  0  0  0  0  0  0
   -5.2028   -0.4517    0.6016 N   0  0  0  0  0  0  0  0  0  0  0  0
   -4.1850   -1.3132    0.8143 N   0  0  0  0  0  0  0  0  0  0  0  0
   -4.2535   -2.0803    1.4990 H   0  0  0  0  0  0  0  0  0  0  0  0
   -2.8321   -0.1432   -0.6512 N   0  0  0  0  0  4  0  0  0  0  0  0
   -3.5197    0.6097   -0.5712 H   0  0  0  0  0  0  0  0  0  0  0  0
   -1.9592   -0.0167   -1.2194 H   0  0  0  0  0  0  0  0  0  0  0  0
   -7.3072    2.3149   -1.8263 C   0  0  0  0  0  0  0  0  0  0  0  0
   -6.8018    2.6031   -2.7549 H   0  0  0  0  0  0  0  0  0  0  0  0
   -8.5140    2.7420   -1.2998 C   0  0  0  0  0  0  0  0  0  0  0  0
   -9.1896    3.4770   -1.7496 H   0  0  0  0  0  0  0  0  0  0  0  0
   -8.7041    2.0345   -0.0599 C   0  0  0  0  0  0  0  0  0  0  0  0
   -9.7183    2.0051    0.9224 C   0  0  0  0  0  0  0  0  0  0  0  0
  -10.6085    2.6443    0.8221 H   0  0  0  0  0  0  0  0  0  0  0  0
   -9.5811    1.1461    2.0218 C   0  0  0  0  0  0  0  0  0  0  0  0
  -10.3696    1.1135    2.7879 H   0  0  0  0  0  0  0  0  0  0  0  0
   -8.4497    0.3184    2.1663 C   0  0  0  0  0  0  0  0  0  0  0  0
   -8.3692   -0.3463    3.0405 H   0  0  0  0  0  0  0  0  0  0  0  0
   -7.4002    0.3231    1.2200 C   0  0  0  0  0  0  0  0  0  0  0  0
   -7.5576    1.1918    0.1084 C   0  0  0  0  0  0  0  0  0  0  0  0
   -6.2380   -0.5226    1.3928 C   0  0  0  0  0  0  0  0  0  0  0  0
   -6.2567   -1.2480    2.2368 H   0  0  0  0  0  0  0  0  0  0  0  0
   -2.9992   -1.2090    0.1300 C   0  0  0  0  0  0  0  0  0  0  0  0
  2 22  1  0  0  0  0
  3  2  1  0  0  0  0
  4  5  1  0  0  0  0
  4 23  2  0  0  0  0
  5  6  1  0  0  0  0
  7  8  1  0  0  0  0
  7 25  2  0  0  0  0
  9  7  1  0  0  0  0
 10 12  2  0  0  0  0
 10  2  1  0  0  0  0
 11 10  1  0  0  0  0
 12 14  1  0  0  0  0
 13 12  1  0  0  0  0
 14 22  2  0  0  0  0
 14 15  1  0  0  0  0
 15 17  2  0  0  0  0
 16 15  1  0  0  0  0
 17 19  1  0  0  0  0
 17 18  1  0  0  0  0
 19 20  1  0  0  0  0
 21 23  1  0  0  0  0
 21 19  2  0  0  0  0
 22 21  1  0  0  0  0
 23 24  1  0  0  0  0
 25  1  1  0  0  0  0
 25  5  1  0  0  0  0
M  END
