1
 OpenBabel05122313063D

 20 19  0  0  0  0  0  0  0  0999 V2000
    0.9551   -1.5377   -0.2221 S   0  0  0  0  0  1  0  0  0  0  0  0
    0.8571    1.5176   -0.4501 S   0  0  0  0  0  0  0  0  0  0  0  0
    3.0000   -0.0616   -0.5721 O   0  0  0  0  0  0  0  0  0  0  0  0
    1.6783    0.0499   -0.4293 C   0  0  0  0  0  0  0  0  0  0  0  0
    3.8058    1.1285   -0.7403 C   0  0  0  0  0  0  0  0  0  0  0  0
    3.5656    1.8308    0.0856 H   0  0  0  0  0  0  0  0  0  0  0  0
    3.5020    1.6261   -1.6856 H   0  0  0  0  0  0  0  0  0  0  0  0
    5.7527   -0.0167    0.5166 C   0  0  0  0  0  0  0  0  0  0  0  0
    5.1065   -0.9128    0.6496 H   0  0  0  0  0  0  0  0  0  0  0  0
    5.2624    0.7021   -0.7550 C   0  0  0  0  0  0  0  0  0  0  0  0
    5.4338    0.0473   -1.6362 H   0  0  0  0  0  0  0  0  0  0  0  0
    5.8711    1.6184   -0.9250 H   0  0  0  0  0  0  0  0  0  0  0  0
    7.1973   -0.4943    0.3298 C   0  0  0  0  0  0  0  0  0  0  0  0
    7.2976   -1.1529   -0.5571 H   0  0  0  0  0  0  0  0  0  0  0  0
    7.5521   -1.0615    1.2141 H   0  0  0  0  0  0  0  0  0  0  0  0
    7.8854    0.3667    0.1872 H   0  0  0  0  0  0  0  0  0  0  0  0
    5.6169    0.8550    1.7713 C   0  0  0  0  0  0  0  0  0  0  0  0
    6.2088    1.7906    1.6730 H   0  0  0  0  0  0  0  0  0  0  0  0
    5.9892    0.3186    2.6674 H   0  0  0  0  0  0  0  0  0  0  0  0
    4.5653    1.1402    1.9760 H   0  0  0  0  0  0  0  0  0  0  0  0
  2  4  2  0  0  0  0
  3  4  1  0  0  0  0
  4  1  1  0  0  0  0
  5  3  1  0  0  0  0
  5  6  1  0  0  0  0
  7  5  1  0  0  0  0
  8  9  1  0  0  0  0
  8 17  1  0  0  0  0
 10  5  1  0  0  0  0
 10  8  1  0  0  0  0
 11 10  1  0  0  0  0
 12 10  1  0  0  0  0
 13  8  1  0  0  0  0
 13 15  1  0  0  0  0
 14 13  1  0  0  0  0
 16 13  1  0  0  0  0
 17 20  1  0  0  0  0
 17 19  1  0  0  0  0
 18 17  1  0  0  0  0
M  END
