1
 OpenBabel05122313063D

 42 45  0  0  0  0  0  0  0  0999 V2000
    1.5555    0.0394    1.2497 S   0  0  0  0  0  1  0  0  0  0  0  0
   -0.2062    0.0201    0.9081 C   0  0  0  0  0  0  0  0  0  0  0  0
   -0.9104    1.2479    0.7341 C   0  0  0  0  0  0  0  0  0  0  0  0
   -2.2608    1.2033    0.3432 C   0  0  0  0  0  0  0  0  0  0  0  0
   -2.9465   -0.0105    0.1418 C   0  0  0  0  0  0  0  0  0  0  0  0
   -2.2449   -1.2083    0.3831 C   0  0  0  0  0  0  0  0  0  0  0  0
   -0.8945   -1.2220    0.7770 C   0  0  0  0  0  0  0  0  0  0  0  0
   -0.2819    2.5793    0.9477 C   0  0  0  0  0  0  0  0  0  0  0  0
    0.4394    2.8677    2.1279 C   0  0  0  0  0  0  0  0  0  0  0  0
    0.9951    4.1372    2.3357 C   0  0  0  0  0  0  0  0  0  0  0  0
    0.8416    5.1437    1.3680 C   0  0  0  0  0  0  0  0  0  0  0  0
    0.1158    4.8746    0.1977 C   0  0  0  0  0  0  0  0  0  0  0  0
   -0.4442    3.6060   -0.0080 C   0  0  0  0  0  0  0  0  0  0  0  0
   -4.3682   -0.0283   -0.2812 C   0  0  0  0  0  0  0  0  0  0  0  0
   -5.2697    0.9752    0.1420 C   0  0  0  0  0  0  0  0  0  0  0  0
   -6.6111    0.9554   -0.2624 C   0  0  0  0  0  0  0  0  0  0  0  0
   -7.0827   -0.0678   -1.1002 C   0  0  0  0  0  0  0  0  0  0  0  0
   -6.1996   -1.0714   -1.5294 C   0  0  0  0  0  0  0  0  0  0  0  0
   -4.8586   -1.0523   -1.1240 C   0  0  0  0  0  0  0  0  0  0  0  0
   -0.2563   -2.5357    1.0596 C   0  0  0  0  0  0  0  0  0  0  0  0
   -0.4099   -3.6104    0.1566 C   0  0  0  0  0  0  0  0  0  0  0  0
    0.1572   -4.8634    0.4268 C   0  0  0  0  0  0  0  0  0  0  0  0
    0.8819   -5.0686    1.6108 C   0  0  0  0  0  0  0  0  0  0  0  0
    1.0270   -4.0137    2.5267 C   0  0  0  0  0  0  0  0  0  0  0  0
    0.4640   -2.7598    2.2542 C   0  0  0  0  0  0  0  0  0  0  0  0
   -2.7880    2.1562    0.1896 H   0  0  0  0  0  0  0  0  0  0  0  0
   -2.7758   -2.1691    0.3159 H   0  0  0  0  0  0  0  0  0  0  0  0
    0.5480    2.0903    2.8979 H   0  0  0  0  0  0  0  0  0  0  0  0
    1.5452    4.3449    3.2663 H   0  0  0  0  0  0  0  0  0  0  0  0
    1.2820    6.1393    1.5304 H   0  0  0  0  0  0  0  0  0  0  0  0
   -0.0102    5.6560   -0.5671 H   0  0  0  0  0  0  0  0  0  0  0  0
   -0.9910    3.3908   -0.9376 H   0  0  0  0  0  0  0  0  0  0  0  0
   -4.9184    1.7668    0.8208 H   0  0  0  0  0  0  0  0  0  0  0  0
   -7.2970    1.7420    0.0876 H   0  0  0  0  0  0  0  0  0  0  0  0
   -8.1362   -0.0829   -1.4181 H   0  0  0  0  0  0  0  0  0  0  0  0
   -6.5564   -1.8730   -2.1940 H   0  0  0  0  0  0  0  0  0  0  0  0
   -4.1685   -1.8282   -1.4883 H   0  0  0  0  0  0  0  0  0  0  0  0
   -0.9558   -3.4454   -0.7837 H   0  0  0  0  0  0  0  0  0  0  0  0
    0.0379   -5.6833   -0.2978 H   0  0  0  0  0  0  0  0  0  0  0  0
    1.3279   -6.0521    1.8240 H   0  0  0  0  0  0  0  0  0  0  0  0
    1.5761   -4.1710    3.4677 H   0  0  0  0  0  0  0  0  0  0  0  0
    0.5656   -1.9441    2.9846 H   0  0  0  0  0  0  0  0  0  0  0  0
  2  1  1  0  0  0  0
  3  2  2  0  0  0  0
  3  8  1  0  0  0  0
  4  3  1  0  0  0  0
  5  4  2  0  0  0  0
  5  6  1  0  0  0  0
  6  7  2  0  0  0  0
  7  2  1  0  0  0  0
  7 20  1  0  0  0  0
  8  9  1  0  0  0  0
  9 10  2  0  0  0  0
  9 28  1  0  0  0  0
 10 29  1  0  0  0  0
 11 30  1  0  0  0  0
 11 10  1  0  0  0  0
 12 11  2  0  0  0  0
 13 12  1  0  0  0  0
 13  8  2  0  0  0  0
 14  5  1  0  0  0  0
 14 15  1  0  0  0  0
 15 33  1  0  0  0  0
 16 34  1  0  0  0  0
 16 15  2  0  0  0  0
 17 16  1  0  0  0  0
 18 19  1  0  0  0  0
 18 17  2  0  0  0  0
 19 14  2  0  0  0  0
 20 25  1  0  0  0  0
 21 22  1  0  0  0  0
 21 20  2  0  0  0  0
 22 23  2  0  0  0  0
 23 40  1  0  0  0  0
 23 24  1  0  0  0  0
 24 41  1  0  0  0  0
 25 24  2  0  0  0  0
 25 42  1  0  0  0  0
 26  4  1  0  0  0  0
 27  6  1  0  0  0  0
 31 12  1  0  0  0  0
 32 13  1  0  0  0  0
 35 17  1  0  0  0  0
 36 18  1  0  0  0  0
 37 19  1  0  0  0  0
 38 21  1  0  0  0  0
 39 22  1  0  0  0  0
M  END
