1
 OpenBabel05122313063D

 29 29  0  0  1  0  0  0  0  0999 V2000
    0.5094   -2.2848   -0.1095 S   0  0  0  0  0  1  0  0  0  0  0  0
   -2.3928   -0.9977   -0.0295 N   0  3  0  0  0  0  0  0  0  0  0  0
   -1.5701   -0.4496    0.4251 H   0  0  0  0  0  0  0  0  0  0  0  0
   -3.5320    1.2571   -1.4113 N   0  0  0  0  0  0  0  0  0  0  0  0
   -0.8756   -2.7334    1.0322 C   0  0  1  0  0  0  0  0  0  0  0  0
   -0.7514   -2.1401    1.9633 H   0  0  0  0  0  0  0  0  0  0  0  0
   -2.2498   -2.4297    0.4264 C   0  0  0  0  0  0  0  0  0  0  0  0
   -2.4438   -3.0838   -0.4472 H   0  0  0  0  0  0  0  0  0  0  0  0
   -3.0453   -2.6220    1.1749 H   0  0  0  0  0  0  0  0  0  0  0  0
   -0.7818   -4.2213    1.3726 C   0  0  0  0  0  0  0  0  0  0  0  0
   -1.6019   -4.5285    2.0551 H   0  0  0  0  0  0  0  0  0  0  0  0
    0.1828   -4.4386    1.8679 H   0  0  0  0  0  0  0  0  0  0  0  0
   -0.8413   -4.8438    0.4563 H   0  0  0  0  0  0  0  0  0  0  0  0
   -3.6343   -0.3264    0.4695 C   0  0  0  0  0  0  0  0  0  0  0  0
   -3.6304   -0.4024    1.5739 H   0  0  0  0  0  0  0  0  0  0  0  0
   -4.5051   -0.8794    0.0645 H   0  0  0  0  0  0  0  0  0  0  0  0
   -3.6540    1.1333    0.0311 C   0  0  0  0  0  0  0  0  0  0  0  0
   -4.6140    1.5800    0.3608 H   0  0  0  0  0  0  0  0  0  0  0  0
   -2.8376    1.6823    0.5756 H   0  0  0  0  0  0  0  0  0  0  0  0
   -2.2741   -0.8434   -1.5153 C   0  0  0  0  0  0  0  0  0  0  0  0
   -3.1229   -1.3900   -1.9735 H   0  0  0  0  0  0  0  0  0  0  0  0
   -1.3143   -1.3197   -1.7962 H   0  0  0  0  0  0  0  0  0  0  0  0
   -2.3142    0.6293   -1.8895 C   0  0  0  0  0  0  0  0  0  0  0  0
   -1.3848    1.1282   -1.4880 H   0  0  0  0  0  0  0  0  0  0  0  0
   -2.2675    0.7094   -2.9947 H   0  0  0  0  0  0  0  0  0  0  0  0
   -3.6865    2.6250   -1.8742 C   0  0  0  0  0  0  0  0  0  0  0  0
   -2.8840    3.3110   -1.4930 H   0  0  0  0  0  0  0  0  0  0  0  0
   -4.6636    3.0289   -1.5434 H   0  0  0  0  0  0  0  0  0  0  0  0
   -3.6641    2.6544   -2.9816 H   0  0  0  0  0  0  0  0  0  0  0  0
  1  5  1  0  0  0  0
  2  3  1  0  0  0  0
  2  7  1  0  0  0  0
  2 14  1  0  0  0  0
  4 17  1  0  0  0  0
  5 10  1  0  0  0  0
  5  6  1  1  0  0  0
  7  5  1  0  0  0  0
  7  9  1  0  0  0  0
  8  7  1  0  0  0  0
 10 12  1  0  0  0  0
 10 11  1  0  0  0  0
 13 10  1  0  0  0  0
 14 15  1  0  0  0  0
 16 14  1  0  0  0  0
 17 18  1  0  0  0  0
 17 14  1  0  0  0  0
 17 19  1  0  0  0  0
 20  2  1  0  0  0  0
 21 20  1  0  0  0  0
 22 20  1  0  0  0  0
 23 20  1  0  0  0  0
 23 24  1  0  0  0  0
 23  4  1  0  0  0  0
 25 23  1  0  0  0  0
 26 28  1  0  0  0  0
 26 27  1  0  0  0  0
 26  4  1  0  0  0  0
 29 26  1  0  0  0  0
M  CHG  1   2   1
M  END
