1
 OpenBabel05122313063D

 21 21  0  0  1  0  0  0  0  0999 V2000
   -1.9531   -1.1014    0.0055 S   0  0  0  0  0  1  0  0  0  0  0  0
   -4.4808   -0.0960   -0.1681 N   0  0  0  0  0  0  0  0  0  0  0  0
   -2.9414    1.4206    0.3530 N   0  0  0  0  0  0  0  0  0  0  0  0
   -3.1451    0.1164    0.0609 C   0  0  1  0  0  3  0  0  0  0  0  0
   -5.2360    1.1124    0.1725 C   0  0  0  0  0  0  0  0  0  0  0  0
   -4.1462    2.1978    0.0975 C   0  0  0  0  0  0  0  0  0  0  0  0
   -5.0805   -1.4303   -0.2278 C   0  0  0  0  0  0  0  0  0  0  0  0
   -6.2755   -1.4477   -1.1823 C   0  0  0  0  0  0  0  0  0  0  0  0
   -5.4226   -1.9606    1.1712 C   0  0  0  0  0  0  0  0  0  0  0  0
   -1.9754    1.8163    0.2788 H   0  0  0  0  0  0  0  0  0  0  0  0
   -6.0691    1.2895   -0.5352 H   0  0  0  0  0  0  0  0  0  0  0  0
   -5.6646    1.0347    1.1999 H   0  0  0  0  0  0  0  0  0  0  0  0
   -4.1106    2.6690   -0.9125 H   0  0  0  0  0  0  0  0  0  0  0  0
   -4.2881    3.0009    0.8468 H   0  0  0  0  0  0  0  0  0  0  0  0
   -4.2742   -2.0683   -0.6492 H   0  0  0  0  0  0  0  0  0  0  0  0
   -6.6320   -2.4868   -1.3228 H   0  0  0  0  0  0  0  0  0  0  0  0
   -7.1299   -0.8582   -0.7883 H   0  0  0  0  0  0  0  0  0  0  0  0
   -5.9975   -1.0403   -2.1745 H   0  0  0  0  0  0  0  0  0  0  0  0
   -6.1986   -1.3405    1.6669 H   0  0  0  0  0  0  0  0  0  0  0  0
   -5.8121   -2.9962    1.1078 H   0  0  0  0  0  0  0  0  0  0  0  0
   -4.5154   -1.9735    1.8069 H   0  0  0  0  0  0  0  0  0  0  0  0
  2  4  1  0  0  0  0
  2  5  1  0  0  0  0
  4  1  1  1  0  0  0
  4  3  1  0  0  0  0
  5 12  1  0  0  0  0
  6  5  1  0  0  0  0
  6  3  1  0  0  0  0
  6 14  1  0  0  0  0
  7  2  1  0  0  0  0
  7  9  1  0  0  0  0
  8 17  1  0  0  0  0
  8  7  1  0  0  0  0
  9 19  1  0  0  0  0
  9 21  1  0  0  0  0
 10  3  1  0  0  0  0
 11  5  1  0  0  0  0
 13  6  1  0  0  0  0
 15  7  1  0  0  0  0
 16  8  1  0  0  0  0
 18  8  1  0  0  0  0
 20  9  1  0  0  0  0
M  END
