1
 OpenBabel05122313063D

 27 27  0  0  0  0  0  0  0  0999 V2000
   -0.0748   -1.4025    0.3279 S   0  0  0  0  0  1  0  0  0  0  0  0
    0.5881    0.2306    0.4910 C   0  0  0  0  0  0  0  0  0  0  0  0
   -0.4061    1.6116    0.3920 S   0  0  0  0  0  0  0  0  0  0  0  0
    1.9292    0.3222    0.7033 N   0  0  0  0  0  0  0  0  0  0  0  0
    2.6264    1.6088    0.7885 C   0  0  0  0  0  0  0  0  0  0  0  0
    3.1683    1.6490    1.7587 H   0  0  0  0  0  0  0  0  0  0  0  0
    1.8665    2.4128    0.7631 H   0  0  0  0  0  0  0  0  0  0  0  0
    3.6196    1.7418   -0.3704 C   0  0  0  0  0  0  0  0  0  0  0  0
    3.0516    1.8227   -1.3252 H   0  0  0  0  0  0  0  0  0  0  0  0
    4.2469    2.6450   -0.2543 H   0  0  0  0  0  0  0  0  0  0  0  0
    4.5061    0.5884   -0.4179 N   0  0  0  0  0  0  0  0  0  0  0  0
    3.8430   -0.7057   -0.4480 C   0  0  0  0  0  0  0  0  0  0  0  0
    4.6018   -1.5044   -0.3852 H   0  0  0  0  0  0  0  0  0  0  0  0
    3.2874   -0.8239   -1.4069 H   0  0  0  0  0  0  0  0  0  0  0  0
    2.8459   -0.8186    0.7143 C   0  0  0  0  0  0  0  0  0  0  0  0
    2.2658   -1.7572    0.6446 H   0  0  0  0  0  0  0  0  0  0  0  0
    3.3982   -0.8164    1.6801 H   0  0  0  0  0  0  0  0  0  0  0  0
    5.8682    0.7792   -0.3333 C   0  0  0  0  0  0  0  0  0  0  0  0
    7.9712   -0.3026   -0.2764 C   0  0  0  0  0  0  0  0  0  0  0  0
    8.2468    0.2418    0.6518 H   0  0  0  0  0  0  0  0  0  0  0  0
    8.3345    0.3143   -1.1256 H   0  0  0  0  0  0  0  0  0  0  0  0
    8.5422   -1.7054   -0.3057 C   0  0  0  0  0  0  0  0  0  0  0  0
    8.1751   -2.3039    0.5519 H   0  0  0  0  0  0  0  0  0  0  0  0
    9.6480   -1.6654   -0.2505 H   0  0  0  0  0  0  0  0  0  0  0  0
    8.2615   -2.2308   -1.2403 H   0  0  0  0  0  0  0  0  0  0  0  0
    6.4162    1.8700   -0.2549 O   0  0  0  0  0  0  0  0  0  0  0  0
    6.5373   -0.4098   -0.3522 O   0  0  0  0  0  0  0  0  0  0  0  0
  1  2  1  0  0  0  0
  2  4  1  0  0  0  0
  3  2  2  0  0  0  0
  4 15  1  0  0  0  0
  4  5  1  0  0  0  0
  5  6  1  0  0  0  0
  7  5  1  0  0  0  0
  8 10  1  0  0  0  0
  8  5  1  0  0  0  0
  9  8  1  0  0  0  0
 11  8  1  0  0  0  0
 11 18  1  0  0  0  0
 12 11  1  0  0  0  0
 12 13  1  0  0  0  0
 12 15  1  0  0  0  0
 14 12  1  0  0  0  0
 15 17  1  0  0  0  0
 16 15  1  0  0  0  0
 18 26  2  0  0  0  0
 19 20  1  0  0  0  0
 21 19  1  0  0  0  0
 22 19  1  0  0  0  0
 22 24  1  0  0  0  0
 22 23  1  0  0  0  0
 25 22  1  0  0  0  0
 27 18  1  0  0  0  0
 27 19  1  0  0  0  0
M  END
