1
 OpenBabel05122313063D

 12 12  0  0  0  0  0  0  0  0999 V2000
   -1.2895    0.1838   -1.1919 S   0  0  0  0  0  1  0  0  0  0  0  0
   -2.6137    0.0439   -0.0498 C   0  0  0  0  0  0  0  0  0  0  0  0
   -3.9429   -0.1724   -0.5206 C   0  0  0  0  0  0  0  0  0  0  0  0
   -5.0470   -0.2618    0.3376 C   0  0  0  0  0  0  0  0  0  0  0  0
   -4.8658   -0.1427    1.7221 C   0  0  0  0  0  0  0  0  0  0  0  0
   -3.5815    0.0791    2.2369 C   0  0  0  0  0  0  0  0  0  0  0  0
   -2.4914    0.1775    1.3620 C   0  0  0  0  0  0  0  0  0  0  0  0
   -0.9232    0.5033    2.0791 Cl  0  0  0  0  0  0  0  0  0  0  0  0
   -4.2225   -0.3345   -2.2355 Cl  0  0  0  0  0  0  0  0  0  0  0  0
   -6.0422   -0.4335   -0.0952 H   0  0  0  0  0  0  0  0  0  0  0  0
   -5.7270   -0.2196    2.4017 H   0  0  0  0  0  0  0  0  0  0  0  0
   -3.4116    0.1875    3.3169 H   0  0  0  0  0  0  0  0  0  0  0  0
  1  2  1  0  0  0  0
  2  7  1  0  0  0  0
  3  2  2  0  0  0  0
  3  4  1  0  0  0  0
  4  5  2  0  0  0  0
  5  6  1  0  0  0  0
  5 11  1  0  0  0  0
  6 12  1  0  0  0  0
  7  8  1  0  0  0  0
  7  6  2  0  0  0  0
  9  3  1  0  0  0  0
 10  4  1  0  0  0  0
M  END
