1
 OpenBabel05122313063D

 22 23  0  0  0  0  0  0  0  0999 V2000
   -1.5295    1.8773    0.8289 S   0  0  0  0  0  1  0  0  0  0  0  0
   -3.0513   -0.4512    0.6473 N   0  0  0  0  0  0  0  0  0  0  0  0
   -4.0707    1.3933   -0.0442 N   0  0  0  0  0  0  0  0  0  0  0  0
   -4.9867    0.3539   -0.1860 C   0  0  0  0  0  0  0  0  0  0  0  0
   -2.8840    0.9073    0.4655 C   0  0  0  0  0  3  0  0  0  0  0  0
   -4.3366   -0.8239    0.2534 C   0  0  0  0  0  0  0  0  0  0  0  0
   -4.9871   -2.0647    0.2428 C   0  0  0  0  0  0  0  0  0  0  0  0
   -4.4931   -2.9800    0.5972 H   0  0  0  0  0  0  0  0  0  0  0  0
   -6.9556   -0.9130   -0.6717 C   0  0  0  0  0  0  0  0  0  0  0  0
   -7.9928   -0.9718   -1.0319 H   0  0  0  0  0  0  0  0  0  0  0  0
   -2.0777   -1.3544    1.2243 C   0  0  0  0  0  0  0  0  0  0  0  0
   -1.0659   -0.9191    1.0914 H   0  0  0  0  0  0  0  0  0  0  0  0
   -2.1234   -2.3285    0.7016 H   0  0  0  0  0  0  0  0  0  0  0  0
   -2.2687   -1.5084    2.3060 H   0  0  0  0  0  0  0  0  0  0  0  0
   -6.3093   -2.0874   -0.2311 C   0  0  0  0  0  0  0  0  0  0  0  0
   -6.8542   -3.0422   -0.2523 H   0  0  0  0  0  0  0  0  0  0  0  0
   -4.3300    2.7779   -0.3903 C   0  0  0  0  0  0  0  0  0  0  0  0
   -5.0535    3.2298    0.3179 H   0  0  0  0  0  0  0  0  0  0  0  0
   -4.7399    2.8381   -1.4176 H   0  0  0  0  0  0  0  0  0  0  0  0
   -3.3738    3.3302   -0.3365 H   0  0  0  0  0  0  0  0  0  0  0  0
   -6.3066    0.3323   -0.6547 C   0  0  0  0  0  0  0  0  0  0  0  0
   -6.8144    1.2468   -0.9906 H   0  0  0  0  0  0  0  0  0  0  0  0
  2 11  1  0  0  0  0
  3  5  1  0  0  0  0
  4  3  1  0  0  0  0
  4  6  1  0  0  0  0
  5  2  1  0  0  0  0
  5  1  1  0  0  0  0
  6  2  1  0  0  0  0
  7  6  2  0  0  0  0
  7  8  1  0  0  0  0
  9 21  1  0  0  0  0
  9 15  2  0  0  0  0
 10  9  1  0  0  0  0
 11 14  1  0  0  0  0
 12 11  1  0  0  0  0
 13 11  1  0  0  0  0
 15  7  1  0  0  0  0
 16 15  1  0  0  0  0
 17 20  1  0  0  0  0
 17  3  1  0  0  0  0
 17 18  1  0  0  0  0
 19 17  1  0  0  0  0
 21  4  2  0  0  0  0
 22 21  1  0  0  0  0
M  END
