1
 OpenBabel05122313063D

 29 31  0  0  1  0  0  0  0  0999 V2000
    1.1095   -1.6366   -0.9876 S   0  0  0  0  0  1  0  0  0  0  0  0
    1.2246    0.8683    0.1517 N   0  0  0  0  0  0  0  0  0  0  0  0
    0.2562    0.7663    0.5168 H   0  0  0  0  0  0  0  0  0  0  0  0
    3.1083    0.2527   -0.8169 N   0  0  0  0  0  0  0  0  0  0  0  0
    2.1137    1.9179    0.3417 C   0  0  0  0  0  0  0  0  0  0  0  0
    3.3299    1.5204   -0.2716 C   0  0  0  0  0  0  0  0  0  0  0  0
    1.8206   -0.1422   -0.5462 C   0  0  1  0  0  3  0  0  0  0  0  0
    4.1058   -0.5589   -1.5143 C   0  0  0  0  0  0  0  0  0  0  0  0
    4.5947    0.0794   -2.2771 H   0  0  0  0  0  0  0  0  0  0  0  0
    3.5364   -1.3495   -2.0450 H   0  0  0  0  0  0  0  0  0  0  0  0
    4.4588    2.3498   -0.2613 C   0  0  0  0  0  0  0  0  0  0  0  0
    5.4082    2.0358   -0.7147 H   0  0  0  0  0  0  0  0  0  0  0  0
    1.9828    3.1620    0.9713 C   0  0  0  0  0  0  0  0  0  0  0  0
    1.0371    3.4689    1.4395 H   0  0  0  0  0  0  0  0  0  0  0  0
    5.1308   -1.1569   -0.5729 C   0  0  0  0  0  0  0  0  0  0  0  0
    4.7195   -2.0342    0.4513 C   0  0  0  0  0  0  0  0  0  0  0  0
    3.6532   -2.2948    0.5478 H   0  0  0  0  0  0  0  0  0  0  0  0
    4.3262    3.5952    0.3734 C   0  0  0  0  0  0  0  0  0  0  0  0
    5.1908    4.2737    0.4048 H   0  0  0  0  0  0  0  0  0  0  0  0
    3.1133    3.9945    0.9761 C   0  0  0  0  0  0  0  0  0  0  0  0
    3.0536    4.9785    1.4633 H   0  0  0  0  0  0  0  0  0  0  0  0
    5.6620   -2.5820    1.3317 C   0  0  0  0  0  0  0  0  0  0  0  0
    5.3340   -3.2695    2.1259 H   0  0  0  0  0  0  0  0  0  0  0  0
    7.0241   -2.2643    1.1957 C   0  0  0  0  0  0  0  0  0  0  0  0
    7.7630   -2.6979    1.8862 H   0  0  0  0  0  0  0  0  0  0  0  0
    7.4403   -1.3975    0.1747 C   0  0  0  0  0  0  0  0  0  0  0  0
    8.5059   -1.1483    0.0610 H   0  0  0  0  0  0  0  0  0  0  0  0
    6.4956   -0.8441   -0.7041 C   0  0  0  0  0  0  0  0  0  0  0  0
    6.8258   -0.1661   -1.5079 H   0  0  0  0  0  0  0  0  0  0  0  0
  2  5  1  0  0  0  0
  2  3  1  0  0  0  0
  4  7  1  0  0  0  0
  4  6  1  0  0  0  0
  5 13  1  0  0  0  0
  6 11  1  0  0  0  0
  6  5  2  0  0  0  0
  7  1  1  1  0  0  0
  7  2  1  0  0  0  0
  8  4  1  0  0  0  0
  8 15  1  0  0  0  0
  9  8  1  0  0  0  0
 10  8  1  0  0  0  0
 11 18  2  0  0  0  0
 12 11  1  0  0  0  0
 13 20  2  0  0  0  0
 13 14  1  0  0  0  0
 15 16  1  0  0  0  0
 16 17  1  0  0  0  0
 16 22  2  0  0  0  0
 18 19  1  0  0  0  0
 18 20  1  0  0  0  0
 20 21  1  0  0  0  0
 22 23  1  0  0  0  0
 24 22  1  0  0  0  0
 24 25  1  0  0  0  0
 26 24  2  0  0  0  0
 27 26  1  0  0  0  0
 28 15  2  0  0  0  0
 28 26  1  0  0  0  0
 29 28  1  0  0  0  0
M  END
