1,3,5
 OpenBabel05122313063D

 24 23  0  0  0  0  0  0  0  0999 V2000
   -1.3730    0.9281    0.2897 N   0  0  0  0  0  0  0  0  0  0  0  0
    1.1770    5.0114    1.5683 N   0  0  0  0  0  0  0  0  0  0  0  0
   -2.3432   -1.5083    0.8866 O   0  5  0  0  0  0  0  0  0  0  0  0
   -3.9284   -0.7544    2.2902 O   0  0  0  0  0  0  0  0  0  0  0  0
   -2.2459   -0.7119   -1.6522 O   0  5  0  0  0  0  0  0  0  0  0  0
   -3.6723    0.7796   -2.5424 O   0  0  0  0  0  0  0  0  0  0  0  0
    1.9593    3.3779    0.1813 O   0  0  0  0  0  0  0  0  0  0  0  0
   -2.9676   -0.5638    1.5749 C   0  0  0  0  0  0  0  0  0  0  0  0
   -2.2582    0.7974    1.4872 C   0  0  0  0  0  0  0  0  0  0  0  0
   -2.7932    0.4894   -1.7586 C   0  0  0  0  0  0  0  0  0  0  0  0
   -2.1003    1.5322   -0.8679 C   0  0  0  0  0  0  0  0  0  0  0  0
   -0.1309    1.6873    0.6063 C   0  0  0  0  0  0  0  0  0  0  0  0
   -0.3155    3.1560    0.9816 C   0  0  0  0  0  0  0  0  0  0  0  0
    1.0576    3.8516    0.8708 C   0  0  0  0  0  0  0  0  0  0  0  0
    2.0437    5.5449    1.4792 H   0  0  0  0  0  0  0  0  0  0  0  0
    0.4123    5.4106    2.1111 H   0  0  0  0  0  0  0  0  0  0  0  0
   -2.9979    1.6204    1.5298 H   0  0  0  0  0  0  0  0  0  0  0  0
   -1.6257    0.8693    2.3954 H   0  0  0  0  0  0  0  0  0  0  0  0
   -1.3577    2.0436   -1.5141 H   0  0  0  0  0  0  0  0  0  0  0  0
   -2.8338    2.2904   -0.5319 H   0  0  0  0  0  0  0  0  0  0  0  0
    0.5397    1.6601   -0.2722 H   0  0  0  0  0  0  0  0  0  0  0  0
    0.3876    1.1545    1.4254 H   0  0  0  0  0  0  0  0  0  0  0  0
   -0.7502    3.2872    1.9936 H   0  0  0  0  0  0  0  0  0  0  0  0
   -0.9979    3.6685    0.2699 H   0  0  0  0  0  0  0  0  0  0  0  0
  1 12  1  0  0  0  0
  1  9  1  0  0  0  0
  2 16  1  0  0  0  0
  3  8  1  0  0  0  0
  6 10  2  0  0  0  0
  7 14  2  0  0  0  0
  8  4  2  0  0  0  0
  9 17  1  0  0  0  0
  9  8  1  0  0  0  0
  9 18  1  0  0  0  0
 10  5  1  0  0  0  0
 10 11  1  0  0  0  0
 11 20  1  0  0  0  0
 11  1  1  0  0  0  0
 12 13  1  0  0  0  0
 12 22  1  0  0  0  0
 13 23  1  0  0  0  0
 14 13  1  0  0  0  0
 14  2  1  0  0  0  0
 15  2  1  0  0  0  0
 19 11  1  0  0  0  0
 21 12  1  0  0  0  0
 24 13  1  0  0  0  0
M  CHG  2   3  -1   5  -1
M  END
