1,2,3
 OpenBabel05122313063D

 24 24  0  0  1  0  0  0  0  0999 V2000
    0.2745   -2.6674   -1.3419 O   0  0  0  0  0  1  0  0  0  0  0  0
    0.4817   -0.0441    1.2650 O   0  5  0  0  0  0  0  0  0  0  0  0
    2.1737   -1.1912   -0.4752 N   0  0  0  0  0  2  0  0  0  0  0  0
    1.3850   -2.6612   -2.1778 C   0  0  0  0  0  0  0  0  0  0  0  0
    1.2795   -1.8931   -2.9844 H   0  0  0  0  0  0  0  0  0  0  0  0
    1.5289   -3.6515   -2.6706 H   0  0  0  0  0  0  0  0  0  0  0  0
    2.5976   -2.3178   -1.3040 C   0  0  0  0  0  0  0  0  0  0  0  0
    2.8232   -3.1885   -0.6469 H   0  0  0  0  0  0  0  0  0  0  0  0
    3.4956   -2.1093   -1.9215 H   0  0  0  0  0  0  0  0  0  0  0  0
    2.9967   -0.2150   -0.1736 C   0  0  1  0  0  3  0  0  0  0  0  0
    4.4606   -0.2963   -0.5633 C   0  0  0  0  0  0  0  0  0  0  0  0
    4.6128   -0.0036   -1.6239 H   0  0  0  0  0  0  0  0  0  0  0  0
    4.8394   -1.3289   -0.4481 H   0  0  0  0  0  0  0  0  0  0  0  0
    5.0861    0.3624    0.0618 H   0  0  0  0  0  0  0  0  0  0  0  0
    2.5358    0.9809    0.5373 C   0  0  0  0  0  0  0  0  0  0  0  0
    1.2767    0.9931    1.2359 C   0  0  0  0  0  0  0  0  0  0  0  0
    0.8942    2.1697    1.9414 C   0  0  0  0  0  0  0  0  0  0  0  0
   -0.0679    2.1409    2.4727 H   0  0  0  0  0  0  0  0  0  0  0  0
    1.6909    3.3097    1.9287 C   0  0  0  0  0  0  0  0  0  0  0  0
    1.3594    4.2125    2.4653 H   0  0  0  0  0  0  0  0  0  0  0  0
    2.9147    3.3164    1.2246 C   0  0  0  0  0  0  0  0  0  0  0  0
    3.5405    4.2203    1.2001 H   0  0  0  0  0  0  0  0  0  0  0  0
    3.3244    2.1639    0.5581 C   0  0  0  0  0  0  0  0  0  0  0  0
    4.2747    2.1882    0.0063 H   0  0  0  0  0  0  0  0  0  0  0  0
  4  1  1  0  0  0  0
  4  7  1  0  0  0  0
  5  4  1  0  0  0  0
  6  4  1  0  0  0  0
  7  8  1  0  0  0  0
  7  3  1  0  0  0  0
  9  7  1  0  0  0  0
 10  3  1  6  0  0  0
 10 15  1  0  0  0  0
 11 13  1  0  0  0  0
 11 10  1  0  0  0  0
 11 14  1  0  0  0  0
 12 11  1  0  0  0  0
 15 23  2  0  0  0  0
 15 16  1  0  0  0  0
 16  2  1  0  0  0  0
 16 17  2  0  0  0  0
 17 18  1  0  0  0  0
 19 17  1  0  0  0  0
 19 20  1  0  0  0  0
 21 19  2  0  0  0  0
 22 21  1  0  0  0  0
 23 21  1  0  0  0  0
 24 23  1  0  0  0  0
M  CHG  1   2  -1
M  END
