1,2,6
 OpenBabel05122313063D

 41 42  0  0  0  0  0  0  0  0999 V2000
   -3.3295   -0.2725    0.0617 O   0  5  0  0  0  0  0  0  0  0  0  0
    0.2613   -1.5116   -0.3546 O   0  5  0  0  0  0  0  0  0  0  0  0
    3.2496    0.4070    0.0364 O   0  0  0  0  0  0  0  0  0  0  0  0
    0.5768    0.7667   -0.0317 N   0  0  0  0  0  0  0  0  0  0  0  0
   -5.9135    0.1199    0.0431 O   0  0  0  0  0  0  0  0  0  0  0  0
   -0.8013    0.7541   -0.0688 N   0  0  0  0  0  2  0  0  0  0  0  0
    1.0226   -0.4510   -0.2119 C   0  0  0  0  0  0  0  0  0  0  0  0
   -1.4068    1.9129    0.0205 C   0  0  0  0  0  3  0  0  0  0  0  0
   -0.7604    2.8085    0.0928 H   0  0  0  0  0  0  0  0  0  0  0  0
    2.4994   -0.7441   -0.2839 C   0  0  0  0  0  0  0  0  0  0  0  0
    2.7218   -1.5889    0.4093 H   0  0  0  0  0  0  0  0  0  0  0  0
    2.7232   -1.1087   -1.3146 H   0  0  0  0  0  0  0  0  0  0  0  0
   -2.8358    2.0975    0.0219 C   0  0  0  0  0  0  0  0  0  0  0  0
    4.6014    0.3354   -0.0005 C   0  0  0  0  0  0  0  0  0  0  0  0
   -5.1463    1.2318    0.0401 C   0  0  0  0  0  0  0  0  0  0  0  0
    5.3324   -0.8282   -0.3330 C   0  0  0  0  0  0  0  0  0  0  0  0
    4.8234   -1.7660   -0.5908 H   0  0  0  0  0  0  0  0  0  0  0  0
   -3.7352    0.9921    0.0294 C   0  0  0  0  0  0  0  0  0  0  0  0
   -3.3526    3.4240    0.0381 C   0  0  0  0  0  0  0  0  0  0  0  0
   -2.6469    4.2681    0.0353 H   0  0  0  0  0  0  0  0  0  0  0  0
   -5.6219    2.5533    0.0470 C   0  0  0  0  0  0  0  0  0  0  0  0
   -6.7028    2.7463    0.0541 H   0  0  0  0  0  0  0  0  0  0  0  0
    6.6761    1.5674    0.3223 C   0  0  0  0  0  0  0  0  0  0  0  0
    7.2355    2.4791    0.5700 H   0  0  0  0  0  0  0  0  0  0  0  0
   -7.9402   -1.1266    0.0271 C   0  0  0  0  0  0  0  0  0  0  0  0
   -7.6162   -1.6885   -0.8705 H   0  0  0  0  0  0  0  0  0  0  0  0
   -9.0459   -1.0602    0.0212 H   0  0  0  0  0  0  0  0  0  0  0  0
   -7.6264   -1.6968    0.9233 H   0  0  0  0  0  0  0  0  0  0  0  0
   -4.7247    3.6434    0.0470 C   0  0  0  0  0  0  0  0  0  0  0  0
   -5.1226    4.6684    0.0522 H   0  0  0  0  0  0  0  0  0  0  0  0
    5.2847    1.5317    0.3257 C   0  0  0  0  0  0  0  0  0  0  0  0
    4.6864    2.4189    0.5767 H   0  0  0  0  0  0  0  0  0  0  0  0
    7.3897    0.4025   -0.0089 C   0  0  0  0  0  0  0  0  0  0  0  0
   -7.3333    0.2626    0.0365 C   0  0  0  0  0  0  0  0  0  0  0  0
   -7.6479    0.8446   -0.8612 H   0  0  0  0  0  0  0  0  0  0  0  0
   -7.6579    0.8373    0.9355 H   0  0  0  0  0  0  0  0  0  0  0  0
    6.7315   -0.7886   -0.3355 C   0  0  0  0  0  0  0  0  0  0  0  0
    7.3325   -1.6722   -0.5884 H   0  0  0  0  0  0  0  0  0  0  0  0
    8.8644    0.4355   -0.0119 N   0  0  0  0  0  0  0  0  0  0  0  0
    9.4092    1.5018    0.2806 O   0  0  0  0  0  0  0  0  0  0  0  0
    9.4571   -0.6046   -0.3060 O   0  0  0  0  0  0  0  0  0  0  0  0
  2  7  1  0  0  0  0
  6  4  1  0  0  0  0
  6  8  1  0  0  0  0
  7  4  2  0  0  0  0
  8 13  1  0  0  0  0
  8  9  1  0  0  0  0
 10  7  1  0  0  0  0
 10  3  1  0  0  0  0
 10 11  1  0  0  0  0
 12 10  1  0  0  0  0
 13 18  2  0  0  0  0
 13 19  1  0  0  0  0
 14  3  1  0  0  0  0
 14 31  1  0  0  0  0
 15  5  1  0  0  0  0
 15 21  2  0  0  0  0
 16 14  2  0  0  0  0
 17 16  1  0  0  0  0
 18 15  1  0  0  0  0
 18  1  1  0  0  0  0
 19 29  2  0  0  0  0
 20 19  1  0  0  0  0
 21 22  1  0  0  0  0
 23 31  2  0  0  0  0
 23 24  1  0  0  0  0
 25 34  1  0  0  0  0
 25 28  1  0  0  0  0
 26 25  1  0  0  0  0
 27 25  1  0  0  0  0
 29 21  1  0  0  0  0
 29 30  1  0  0  0  0
 31 32  1  0  0  0  0
 33 23  1  0  0  0  0
 34  5  1  0  0  0  0
 34 36  1  0  0  0  0
 35 34  1  0  0  0  0
 37 16  1  0  0  0  0
 37 33  2  0  0  0  0
 38 37  1  0  0  0  0
 39 33  1  0  0  0  0
 39 40  2  0  0  0  0
 41 39  2  0  0  0  0
M  CHG  2   1  -1   2  -1
M  END
