1,4,15
 OpenBabel05122313063D

 23 24  0  0  0  0  0  0  0  0999 V2000
   -0.6998   -0.0361    0.0071 N   0  0  0  0  0  2  0  0  0  0  0  0
   -1.3290    1.1354   -0.0197 C   0  0  0  0  0  0  0  0  0  0  0  0
   -0.4491    2.2688    0.2920 C   0  0  0  0  0  0  0  0  0  0  0  0
    0.7691    2.1382    0.5667 O   0  5  0  0  0  0  0  0  0  0  0  0
   -1.0413    3.5080    0.3287 N   0  0  0  0  0  0  0  0  0  0  0  0
   -0.4581    4.3093    0.5882 H   0  0  0  0  0  0  0  0  0  0  0  0
   -2.3775    3.8132   -0.0022 C   0  0  0  0  0  0  0  0  0  0  0  0
   -2.8136    4.9480    0.0584 O   0  0  0  0  0  0  0  0  0  0  0  0
   -3.1130    2.7118   -0.4166 N   0  0  0  0  0  0  0  0  0  0  0  0
   -4.0520    2.9188   -0.7707 H   0  0  0  0  0  0  0  0  0  0  0  0
   -2.6778    1.3787   -0.5686 C   0  0  0  0  0  0  0  0  0  0  0  0
   -3.3541    0.5618   -1.1767 O   0  0  0  0  0  0  0  0  0  0  0  0
   -1.1588   -1.2827   -0.0035 C   0  0  0  0  0  0  0  0  0  0  0  0
   -0.1038   -2.2869   -0.2017 C   0  0  0  0  0  0  0  0  0  0  0  0
    1.1062   -1.9933   -0.3535 O   0  5  0  0  0  0  0  0  0  0  0  0
   -0.5151   -3.5964   -0.2681 N   0  0  0  0  0  0  0  0  0  0  0  0
    0.1953   -4.3115   -0.4514 H   0  0  0  0  0  0  0  0  0  0  0  0
   -1.8223   -4.0812   -0.0594 C   0  0  0  0  0  0  0  0  0  0  0  0
   -2.0909   -5.2659   -0.1366 O   0  0  0  0  0  0  0  0  0  0  0  0
   -3.6690   -3.4221    0.5320 H   0  0  0  0  0  0  0  0  0  0  0  0
   -2.7385   -3.0893    0.2610 N   0  0  0  0  0  0  0  0  0  0  0  0
   -2.5054   -1.7086    0.4287 C   0  0  0  0  0  0  0  0  0  0  0  0
   -3.3394   -0.9901    0.9604 O   0  0  0  0  0  0  0  0  0  0  0  0
  2  1  1  0  0  0  0
  2  3  2  0  0  0  0
  3  5  1  0  0  0  0
  3  4  1  0  0  0  0
  5  6  1  0  0  0  0
  7  8  2  0  0  0  0
  7  5  1  0  0  0  0
  9  7  1  0  0  0  0
 10  9  1  0  0  0  0
 11  9  1  0  0  0  0
 11  2  1  0  0  0  0
 12 11  2  0  0  0  0
 13  1  1  0  0  0  0
 13 22  1  0  0  0  0
 14 13  2  0  0  0  0
 15 14  1  0  0  0  0
 16 14  1  0  0  0  0
 16 18  1  0  0  0  0
 17 16  1  0  0  0  0
 18 21  1  0  0  0  0
 19 18  2  0  0  0  0
 21 22  1  0  0  0  0
 21 20  1  0  0  0  0
 22 23  2  0  0  0  0
M  CHG  2   4  -1  15  -1
M  END
