1,2,5
 OpenBabel05122313063D

 15 15  0  0  1  0  0  0  0  0999 V2000
    0.3469    1.1944   -1.9710 O   0  5  0  0  0  0  0  0  0  0  0  0
   -0.3475    1.1935    1.9716 O   0  5  0  0  0  0  0  0  0  0  0  0
    0.5634    2.8875   -3.4755 O   0  0  0  0  0  0  0  0  0  0  0  0
   -0.5708    2.8860    3.4757 O   0  0  0  0  0  0  0  0  0  0  0  0
   -0.0031    2.7382    0.0002 N   0  0  0  0  0  2  0  0  0  0  0  0
    0.3887    2.4595   -2.3447 C   0  0  0  0  0  0  0  0  0  0  0  0
    0.1879    3.3903   -1.1585 C   0  0  1  0  0  3  0  0  0  0  0  0
    0.1900    4.7902   -1.2015 C   0  0  0  0  0  0  0  0  0  0  0  0
    0.3473    5.2877   -2.1691 H   0  0  0  0  0  0  0  0  0  0  0  0
   -0.0083    5.4933   -0.0001 C   0  0  0  0  0  0  0  0  0  0  0  0
   -0.0104    6.5942   -0.0002 H   0  0  0  0  0  0  0  0  0  0  0  0
   -0.2040    4.7897    1.2015 C   0  0  0  0  0  0  0  0  0  0  0  0
   -0.3633    5.2868    2.1689 H   0  0  0  0  0  0  0  0  0  0  0  0
   -0.1966    3.3898    1.1587 C   0  0  0  0  0  0  0  0  0  0  0  0
   -0.3941    2.4585    2.3450 C   0  0  0  0  0  0  0  0  0  0  0  0
  2 15  1  0  0  0  0
  3  6  2  0  0  0  0
  5 14  1  0  0  0  0
  6  1  1  0  0  0  0
  7  6  1  6  0  0  0
  7  5  1  0  0  0  0
  8  7  1  0  0  0  0
  8 10  2  0  0  0  0
  9  8  1  0  0  0  0
 10 12  1  0  0  0  0
 11 10  1  0  0  0  0
 12 13  1  0  0  0  0
 14 12  2  0  0  0  0
 14 15  1  0  0  0  0
 15  4  2  0  0  0  0
M  CHG  2   1  -1   2  -1
M  END
