17,18,20
 OpenBabel05122313063D

 20 20  0  0  0  0  0  0  0  0999 V2000
    2.7501    0.3184   -1.9756 C   0  0  0  0  0  0  0  0  0  0  0  0
    2.2133    1.7340   -1.6533 C   0  0  0  0  0  0  0  0  0  0  0  0
    0.0328    2.5251   -0.9466 C   0  0  0  0  0  3  0  0  0  0  0  0
   -1.1619    2.4886   -0.1429 C   0  0  0  0  0  0  0  0  0  0  0  0
   -2.1458    3.4925   -0.3408 C   0  0  0  0  0  0  0  0  0  0  0  0
   -3.2973    3.5655    0.4387 C   0  0  0  0  0  0  0  0  0  0  0  0
   -3.4776    2.6095    1.4678 C   0  0  0  0  0  0  0  0  0  0  0  0
   -2.5330    1.6159    1.6976 C   0  0  0  0  0  0  0  0  0  0  0  0
   -1.3411    1.5017    0.9067 C   0  0  0  0  0  0  0  0  0  0  0  0
    2.1250    2.3484   -2.5749 H   0  0  0  0  0  0  0  0  0  0  0  0
    2.9775    2.2002   -0.9913 H   0  0  0  0  0  0  0  0  0  0  0  0
    0.1664    3.4037   -1.6141 H   0  0  0  0  0  0  0  0  0  0  0  0
   -1.9739    4.2316   -1.1418 H   0  0  0  0  0  0  0  0  0  0  0  0
   -4.0485    4.3494    0.2611 H   0  0  0  0  0  0  0  0  0  0  0  0
   -4.3824    2.6480    2.0968 H   0  0  0  0  0  0  0  0  0  0  0  0
   -2.6672    0.8655    2.4906 H   0  0  0  0  0  0  0  0  0  0  0  0
    0.9716    1.6295   -0.9221 N   0  0  0  0  0  2  0  0  0  0  0  0
    2.2439   -0.6130   -1.2132 O   0  5  0  0  0  0  0  0  0  0  0  0
    3.6078    0.1493   -2.8385 O   0  0  0  0  0  0  0  0  0  0  0  0
   -0.5073    0.5521    1.1918 O   0  5  0  0  0  0  0  0  0  0  0  0
  1  2  1  0  0  0  0
  1 18  1  0  0  0  0
  2 11  1  0  0  0  0
  2 17  1  0  0  0  0
  3 17  1  0  0  0  0
  3  4  1  0  0  0  0
  4  9  1  0  0  0  0
  5  4  2  0  0  0  0
  5  6  1  0  0  0  0
  6  7  2  0  0  0  0
  7  8  1  0  0  0  0
  7 15  1  0  0  0  0
  8 16  1  0  0  0  0
  9 20  1  0  0  0  0
  9  8  2  0  0  0  0
 10  2  1  0  0  0  0
 12  3  1  0  0  0  0
 13  5  1  0  0  0  0
 14  6  1  0  0  0  0
 19  1  2  0  0  0  0
M  CHG  2  18  -1  20  -1
M  END
