1,2,4
 OpenBabel05122313063D

 26 27  0  0  0  0  0  0  0  0999 V2000
   -3.6549    0.5022    0.0285 O   0  5  0  0  0  0  0  0  0  0  0  0
   -0.4685   -1.6830    0.1447 O   0  5  0  0  0  0  0  0  0  0  0  0
   -1.9259    2.0574    0.0919 N   0  0  0  0  0  0  0  0  0  0  0  0
   -1.1638    0.9266    0.0754 N   0  0  0  0  0  2  0  0  0  0  0  0
   -4.1459    2.7357    0.1153 N   0  0  0  0  0  0  0  0  0  0  0  0
   -3.2146    1.7075    0.0639 C   0  0  0  0  0  0  0  0  0  0  0  0
    0.1387    1.1205    0.0705 C   0  0  0  0  0  3  0  0  0  0  0  0
    1.1487    0.0987    0.0536 C   0  0  0  0  0  0  0  0  0  0  0  0
    0.7613   -1.2821    0.0945 C   0  0  0  0  0  0  0  0  0  0  0  0
    1.7932   -2.2884    0.0981 C   0  0  0  0  0  0  0  0  0  0  0  0
    3.1306   -1.9614    0.0602 C   0  0  0  0  0  0  0  0  0  0  0  0
    3.5559   -0.5972    0.0156 C   0  0  0  0  0  0  0  0  0  0  0  0
    4.9359   -0.2573   -0.0254 C   0  0  0  0  0  0  0  0  0  0  0  0
    5.3592    1.0656   -0.0699 C   0  0  0  0  0  0  0  0  0  0  0  0
    4.3864    2.0966   -0.0757 C   0  0  0  0  0  0  0  0  0  0  0  0
    3.0299    1.7935   -0.0364 C   0  0  0  0  0  0  0  0  0  0  0  0
    2.5543    0.4468    0.0120 C   0  0  0  0  0  0  0  0  0  0  0  0
   -3.7756    3.6411   -0.1773 H   0  0  0  0  0  0  0  0  0  0  0  0
   -5.0514    2.4844   -0.2833 H   0  0  0  0  0  0  0  0  0  0  0  0
    0.4417    2.1833    0.0798 H   0  0  0  0  0  0  0  0  0  0  0  0
    1.4496   -3.3332    0.1327 H   0  0  0  0  0  0  0  0  0  0  0  0
    3.8992   -2.7521    0.0627 H   0  0  0  0  0  0  0  0  0  0  0  0
    5.6717   -1.0787   -0.0212 H   0  0  0  0  0  0  0  0  0  0  0  0
    6.4322    1.3109   -0.1013 H   0  0  0  0  0  0  0  0  0  0  0  0
    4.7044    3.1509   -0.1126 H   0  0  0  0  0  0  0  0  0  0  0  0
    2.3073    2.6211   -0.0452 H   0  0  0  0  0  0  0  0  0  0  0  0
  1  6  1  0  0  0  0
  4  3  1  0  0  0  0
  6  3  2  0  0  0  0
  6  5  1  0  0  0  0
  7  4  1  0  0  0  0
  7 20  1  0  0  0  0
  8  7  1  0  0  0  0
  8  9  1  0  0  0  0
  9 10  2  0  0  0  0
  9  2  1  0  0  0  0
 10 21  1  0  0  0  0
 11 22  1  0  0  0  0
 11 10  1  0  0  0  0
 12 11  2  0  0  0  0
 13 23  1  0  0  0  0
 13 12  1  0  0  0  0
 14 13  2  0  0  0  0
 15 14  1  0  0  0  0
 15 16  2  0  0  0  0
 16 17  1  0  0  0  0
 17 12  1  0  0  0  0
 17  8  2  0  0  0  0
 18  5  1  0  0  0  0
 19  5  1  0  0  0  0
 24 14  1  0  0  0  0
 25 15  1  0  0  0  0
 26 16  1  0  0  0  0
M  CHG  2   1  -1   2  -1
M  END
