1,26,29
 OpenBabel05122313063D

 29 30  0  0  0  0  0  0  0  0999 V2000
    0.0358   -1.4085   -0.0026 N   0  0  0  0  0  2  0  0  0  0  0  0
   -1.3085   -1.5829   -0.0266 N   0  0  0  0  0  0  0  0  0  0  0  0
    2.9252   -1.1904   -0.2919 C   0  0  0  0  0  0  0  0  0  0  0  0
    4.3356   -1.1914   -0.3946 C   0  0  0  0  0  0  0  0  0  0  0  0
    4.8386   -0.2372   -0.6066 H   0  0  0  0  0  0  0  0  0  0  0  0
    5.0535   -2.3780   -0.2279 C   0  0  0  0  0  0  0  0  0  0  0  0
    6.1514   -2.3592   -0.3053 H   0  0  0  0  0  0  0  0  0  0  0  0
    4.3892   -3.5953    0.0363 C   0  0  0  0  0  0  0  0  0  0  0  0
    4.9638   -4.5236    0.1655 H   0  0  0  0  0  0  0  0  0  0  0  0
    2.9993   -3.6110    0.1294 C   0  0  0  0  0  0  0  0  0  0  0  0
    2.4648   -4.5530    0.3287 H   0  0  0  0  0  0  0  0  0  0  0  0
    2.2406   -2.4206   -0.0231 C   0  0  0  0  0  0  0  0  0  0  0  0
    0.8061   -2.4712    0.0291 C   0  0  0  0  0  3  0  0  0  0  0  0
    0.3100   -3.4586    0.0858 H   0  0  0  0  0  0  0  0  0  0  0  0
   -1.9289   -0.4017   -0.0780 C   0  0  0  0  0  0  0  0  0  0  0  0
   -3.3875   -0.3588   -0.0843 C   0  0  0  0  0  0  0  0  0  0  0  0
   -4.1530   -1.5716   -0.0271 C   0  0  0  0  0  0  0  0  0  0  0  0
   -5.5650   -1.4799   -0.0304 C   0  0  0  0  0  0  0  0  0  0  0  0
   -6.1379   -2.4171    0.0146 H   0  0  0  0  0  0  0  0  0  0  0  0
   -6.1968   -0.2374   -0.0891 C   0  0  0  0  0  0  0  0  0  0  0  0
   -7.2970   -0.1935   -0.0902 H   0  0  0  0  0  0  0  0  0  0  0  0
   -5.4469    0.9577   -0.1473 C   0  0  0  0  0  0  0  0  0  0  0  0
   -5.9552    1.9315   -0.1937 H   0  0  0  0  0  0  0  0  0  0  0  0
   -4.0554    0.8882   -0.1448 C   0  0  0  0  0  0  0  0  0  0  0  0
   -3.4379    1.7970   -0.1894 H   0  0  0  0  0  0  0  0  0  0  0  0
    2.2571   -0.0597   -0.4859 O   0  5  0  0  0  0  0  0  0  0  0  0
   -3.5898   -2.7814    0.0280 O   0  0  0  0  0  0  0  0  0  0  0  0
   -2.5845   -2.6368    0.0165 H   0  0  0  0  0  0  0  0  0  0  0  0
   -1.2311    0.7032   -0.1424 O   0  5  0  0  0  0  0  0  0  0  0  0
  1 13  1  0  0  0  0
  2  1  1  0  0  0  0
  3 12  1  0  0  0  0
  4  3  2  0  0  0  0
  4  6  1  0  0  0  0
  5  4  1  0  0  0  0
  6  8  2  0  0  0  0
  7  6  1  0  0  0  0
  8 10  1  0  0  0  0
  8  9  1  0  0  0  0
 10 11  1  0  0  0  0
 12 13  1  0  0  0  0
 12 10  2  0  0  0  0
 13 14  1  0  0  0  0
 15  2  2  0  0  0  0
 16 15  1  0  0  0  0
 16 17  1  0  0  0  0
 17 27  1  0  0  0  0
 18 17  2  0  0  0  0
 18 19  1  0  0  0  0
 20 18  1  0  0  0  0
 21 20  1  0  0  0  0
 22 24  1  0  0  0  0
 22 20  2  0  0  0  0
 23 22  1  0  0  0  0
 24 16  2  0  0  0  0
 25 24  1  0  0  0  0
 26  3  1  0  0  0  0
 28 27  1  0  0  0  0
 29 15  1  0  0  0  0
M  CHG  2  26  -1  29  -1
M  END
