1,4,8
 OpenBabel05122313063D

 31 32  0  0  0  0  0  0  0  0999 V2000
   -1.4943    1.4214    0.0020 O   0  5  0  0  0  0  0  0  0  0  0  0
   -7.3795   -0.6960   -0.0010 O   0  0  0  0  0  0  0  0  0  0  0  0
   -6.3207   -2.6105   -0.0015 O   0  0  0  0  0  0  0  0  0  0  0  0
    1.9602    0.1604   -0.0002 O   0  5  0  0  0  0  0  0  0  0  0  0
    2.2114   -4.0478    0.0007 O   0  0  0  0  0  0  0  0  0  0  0  0
    1.4196   -3.4118    0.0008 H   0  0  0  0  0  0  0  0  0  0  0  0
   -6.3502   -1.3769   -0.0010 N   0  0  0  0  0  0  0  0  0  0  0  0
   -0.2181   -1.0201    0.0006 N   0  0  0  0  0  2  0  0  0  0  0  0
    0.8623   -1.8573    0.0006 N   0  0  0  0  0  0  0  0  0  0  0  0
   -2.5989    0.7180    0.0011 C   0  0  0  0  0  0  0  0  0  0  0  0
   -2.6302   -0.7300    0.0004 C   0  0  0  0  0  0  0  0  0  0  0  0
   -3.8815   -1.3912   -0.0002 C   0  0  0  0  0  3  0  0  0  0  0  0
   -3.9403   -2.4886   -0.0008 H   0  0  0  0  0  0  0  0  0  0  0  0
   -5.0656   -0.6616   -0.0003 C   0  0  0  0  0  0  0  0  0  0  0  0
   -5.0572    0.7513    0.0004 C   0  0  0  0  0  0  0  0  0  0  0  0
   -6.0175    1.2839    0.0003 H   0  0  0  0  0  0  0  0  0  0  0  0
   -3.8428    1.4201    0.0011 C   0  0  0  0  0  0  0  0  0  0  0  0
   -3.7993    2.5188    0.0017 H   0  0  0  0  0  0  0  0  0  0  0  0
   -1.4346   -1.5235    0.0004 C   0  0  0  0  0  0  0  0  0  0  0  0
   -1.5199   -2.6245    0.0001 H   0  0  0  0  0  0  0  0  0  0  0  0
    1.9952   -1.1499    0.0001 C   0  0  0  0  0  0  0  0  0  0  0  0
    3.2751   -1.8584   -0.0001 C   0  0  0  0  0  0  0  0  0  0  0  0
    3.3136   -3.2926    0.0002 C   0  0  0  0  0  0  0  0  0  0  0  0
    4.5743   -3.9354   -0.0001 C   0  0  0  0  0  0  0  0  0  0  0  0
    4.5859   -5.0348    0.0002 H   0  0  0  0  0  0  0  0  0  0  0  0
    5.7545   -3.1912   -0.0007 C   0  0  0  0  0  0  0  0  0  0  0  0
    6.7222   -3.7165   -0.0009 H   0  0  0  0  0  0  0  0  0  0  0  0
    5.7209   -1.7802   -0.0010 C   0  0  0  0  0  0  0  0  0  0  0  0
    6.6555   -1.2011   -0.0014 H   0  0  0  0  0  0  0  0  0  0  0  0
    4.4879   -1.1295   -0.0007 C   0  0  0  0  0  0  0  0  0  0  0  0
    4.4260   -0.0317   -0.0009 H   0  0  0  0  0  0  0  0  0  0  0  0
  2  7  2  0  0  0  0
  3  7  2  0  0  0  0
  4 21  1  0  0  0  0
  5  6  1  0  0  0  0
  7 14  1  0  0  0  0
  9  8  1  0  0  0  0
 10  1  1  0  0  0  0
 11 10  1  0  0  0  0
 12 11  1  0  0  0  0
 13 12  1  0  0  0  0
 14 12  1  0  0  0  0
 14 15  2  0  0  0  0
 15 17  1  0  0  0  0
 16 15  1  0  0  0  0
 17 10  2  0  0  0  0
 17 18  1  0  0  0  0
 19 11  2  0  0  0  0
 19  8  1  0  0  0  0
 20 19  1  0  0  0  0
 21  9  2  0  0  0  0
 22 21  1  0  0  0  0
 22 23  1  0  0  0  0
 23  5  1  0  0  0  0
 24 25  1  0  0  0  0
 24 23  2  0  0  0  0
 26 24  1  0  0  0  0
 27 26  1  0  0  0  0
 28 30  1  0  0  0  0
 28 26  2  0  0  0  0
 29 28  1  0  0  0  0
 30 22  2  0  0  0  0
 31 30  1  0  0  0  0
M  CHG  2   1  -1   4  -1
M  END
