4,6,7
 OpenBabel05122313063D

 28 29  0  0  0  0  0  0  0  0999 V2000
    4.4326    2.3455    0.1842 Cl  0  0  0  0  0  0  0  0  0  0  0  0
    6.2679   -2.7601   -0.2361 Cl  0  0  0  0  0  0  0  0  0  0  0  0
   -7.1223    0.5350   -0.1019 Cl  0  0  0  0  0  0  0  0  0  0  0  0
    0.1064   -0.9719   -0.1465 N   0  0  0  0  0  2  0  0  0  0  0  0
   -1.0878   -1.6076   -0.0309 N   0  0  0  0  0  0  0  0  0  0  0  0
    1.8035    1.0820    0.0060 O   0  5  0  0  0  0  0  0  0  0  0  0
   -1.8339    0.5573   -0.2472 O   0  5  0  0  0  0  0  0  0  0  0  0
    2.5348   -1.2021   -0.1546 C   0  0  0  0  0  0  0  0  0  0  0  0
    2.7810    0.2053   -0.0645 C   0  0  0  0  0  0  0  0  0  0  0  0
    4.1329    0.6428    0.0074 C   0  0  0  0  0  0  0  0  0  0  0  0
    5.1990   -0.2596   -0.0483 C   0  0  0  0  0  0  0  0  0  0  0  0
    6.2318    0.1092    0.0004 H   0  0  0  0  0  0  0  0  0  0  0  0
    4.9333   -1.6392   -0.1615 C   0  0  0  0  0  0  0  0  0  0  0  0
    3.6216   -2.1108   -0.2043 C   0  0  0  0  0  0  0  0  0  0  0  0
    3.4270   -3.1902   -0.2749 H   0  0  0  0  0  0  0  0  0  0  0  0
    1.1884   -1.7143   -0.1242 C   0  0  0  0  0  3  0  0  0  0  0  0
    1.0378   -2.8077   -0.0558 H   0  0  0  0  0  0  0  0  0  0  0  0
   -2.0671   -0.7194   -0.1025 C   0  0  0  0  0  0  0  0  0  0  0  0
   -3.4711   -1.1731   -0.0123 C   0  0  0  0  0  0  0  0  0  0  0  0
   -4.5058   -0.2192   -0.0914 C   0  0  0  0  0  0  0  0  0  0  0  0
   -4.2570    0.8422   -0.2209 H   0  0  0  0  0  0  0  0  0  0  0  0
   -5.8377   -0.6437   -0.0044 C   0  0  0  0  0  0  0  0  0  0  0  0
   -6.1568   -2.0022    0.1604 C   0  0  0  0  0  0  0  0  0  0  0  0
   -7.2099   -2.3096    0.2260 H   0  0  0  0  0  0  0  0  0  0  0  0
   -5.1172   -2.9438    0.2379 C   0  0  0  0  0  0  0  0  0  0  0  0
   -5.3631   -4.0086    0.3665 H   0  0  0  0  0  0  0  0  0  0  0  0
   -3.7801   -2.5407    0.1527 C   0  0  0  0  0  0  0  0  0  0  0  0
   -2.9557   -3.2642    0.2116 H   0  0  0  0  0  0  0  0  0  0  0  0
  2 13  1  0  0  0  0
  3 22  1  0  0  0  0
  4 16  1  0  0  0  0
  4  5  1  0  0  0  0
  7 18  1  0  0  0  0
  8 16  1  0  0  0  0
  8  9  1  0  0  0  0
  9  6  1  0  0  0  0
  9 10  2  0  0  0  0
 10  1  1  0  0  0  0
 11 12  1  0  0  0  0
 11 10  1  0  0  0  0
 13 11  2  0  0  0  0
 14 13  1  0  0  0  0
 14  8  2  0  0  0  0
 15 14  1  0  0  0  0
 16 17  1  0  0  0  0
 18  5  2  0  0  0  0
 18 19  1  0  0  0  0
 19 27  1  0  0  0  0
 20 19  2  0  0  0  0
 20 22  1  0  0  0  0
 21 20  1  0  0  0  0
 22 23  2  0  0  0  0
 23 24  1  0  0  0  0
 23 25  1  0  0  0  0
 25 26  1  0  0  0  0
 27 28  1  0  0  0  0
 27 25  2  0  0  0  0
M  CHG  2   6  -1   7  -1
M  END
