1,2,6
 OpenBabel05122313063D

 22 21  0  0  0  0  0  0  0  0999 V2000
    0.9571   -1.1399    1.7730 O   0  0  0  0  0  1  0  0  0  0  0  0
    1.2888   -1.5868   -0.7810 O   0  5  0  0  0  0  0  0  0  0  0  0
    2.6924   -3.0520   -1.7941 O   0  0  0  0  0  0  0  0  0  0  0  0
    5.9216    2.4584    0.1305 O   0  0  0  0  0  0  0  0  0  0  0  0
    5.5536    3.0322    0.8278 H   0  0  0  0  0  0  0  0  0  0  0  0
    3.1913   -0.1444    0.3277 N   0  0  0  0  0  0  0  0  0  0  0  0
    2.2170   -1.7373    1.9812 C   0  0  0  0  0  0  0  0  0  0  0  0
    2.3119   -2.6594    1.3571 H   0  0  0  0  0  0  0  0  0  0  0  0
    2.2999   -2.0645    3.0427 H   0  0  0  0  0  0  0  0  0  0  0  0
    3.3605   -0.7666    1.6773 C   0  0  0  0  0  0  0  0  0  0  0  0
    3.3340    0.0611    2.4140 H   0  0  0  0  0  0  0  0  0  0  0  0
    4.3460   -1.2758    1.7582 H   0  0  0  0  0  0  0  0  0  0  0  0
    2.4717   -2.0337   -1.1697 C   0  0  0  0  0  0  0  0  0  0  0  0
    3.5850   -1.0460   -0.7793 C   0  0  0  0  0  0  0  0  0  0  0  0
    4.5156   -1.6072   -0.5569 H   0  0  0  0  0  0  0  0  0  0  0  0
    3.7541   -0.4220   -1.6803 H   0  0  0  0  0  0  0  0  0  0  0  0
    3.8687    1.1752    0.2139 C   0  0  0  0  0  0  0  0  0  0  0  0
    3.4407    1.8290    1.0024 H   0  0  0  0  0  0  0  0  0  0  0  0
    3.5684    1.6140   -0.7592 H   0  0  0  0  0  0  0  0  0  0  0  0
    5.3986    1.1606    0.3269 C   0  0  0  0  0  0  0  0  0  0  0  0
    5.7159    0.7198    1.3047 H   0  0  0  0  0  0  0  0  0  0  0  0
    5.8430    0.5262   -0.4677 H   0  0  0  0  0  0  0  0  0  0  0  0
  1  7  1  0  0  0  0
  3 13  2  0  0  0  0
  4 20  1  0  0  0  0
  4  5  1  0  0  0  0
  6 10  1  0  0  0  0
  7  9  1  0  0  0  0
  8  7  1  0  0  0  0
 10 12  1  0  0  0  0
 10  7  1  0  0  0  0
 10 11  1  0  0  0  0
 13  2  1  0  0  0  0
 13 14  1  0  0  0  0
 14 15  1  0  0  0  0
 14  6  1  0  0  0  0
 16 14  1  0  0  0  0
 17 20  1  0  0  0  0
 17  6  1  0  0  0  0
 17 18  1  0  0  0  0
 19 17  1  0  0  0  0
 20 21  1  0  0  0  0
 22 20  1  0  0  0  0
M  CHG  1   2  -1
M  END
