4,10,26
 OpenBabel05122313063D

 36 36  0  0  1  0  0  0  0  0999 V2000
    0.4060   -1.9716    1.7721 C   0  0  0  0  0  0  0  0  0  0  0  0
    0.0089   -2.2262    2.7819 H   0  0  0  0  0  0  0  0  0  0  0  0
    1.2692   -2.6386    1.5652 H   0  0  0  0  0  0  0  0  0  0  0  0
    0.9421   -0.5935    1.7487 N   0  0  0  0  0  0  0  0  0  0  0  0
    1.7616   -0.5196    2.3628 H   0  0  0  0  0  0  0  0  0  0  0  0
   -0.0293    0.4448    2.0663 C   0  0  0  0  0  0  0  0  0  0  0  0
    0.5236    1.3246    2.4535 H   0  0  0  0  0  0  0  0  0  0  0  0
   -0.7708    0.1278    2.8359 H   0  0  0  0  0  0  0  0  0  0  0  0
   -0.7217    0.9167    0.7861 C   0  0  2  0  0  3  0  0  0  0  0  0
   -0.0801    0.9451   -0.2864 O   0  0  0  0  0  1  0  0  0  0  0  0
   -1.9811    1.3690    0.9048 N   0  0  0  0  0  0  0  0  0  0  0  0
   -2.4336    1.2274    1.8096 H   0  0  0  0  0  0  0  0  0  0  0  0
   -2.8115    1.9633   -0.1770 C   0  0  0  0  0  0  0  0  0  0  0  0
   -4.1543    2.3298    0.4712 C   0  0  0  0  0  0  0  0  0  0  0  0
   -4.8260    2.7830   -0.2825 H   0  0  0  0  0  0  0  0  0  0  0  0
   -4.0201    3.0653    1.2914 H   0  0  0  0  0  0  0  0  0  0  0  0
   -4.6617    1.4293    0.8757 H   0  0  0  0  0  0  0  0  0  0  0  0
   -3.0227    0.9283   -1.2950 C   0  0  0  0  0  0  0  0  0  0  0  0
   -3.6769    1.3547   -2.0811 H   0  0  0  0  0  0  0  0  0  0  0  0
   -3.4960    0.0091   -0.8974 H   0  0  0  0  0  0  0  0  0  0  0  0
   -2.0582    0.6426   -1.7535 H   0  0  0  0  0  0  0  0  0  0  0  0
   -2.1170    3.2252   -0.7187 C   0  0  0  0  0  0  0  0  0  0  0  0
   -2.7485    3.6948   -1.4982 H   0  0  0  0  0  0  0  0  0  0  0  0
   -1.1390    2.9714   -1.1688 H   0  0  0  0  0  0  0  0  0  0  0  0
   -1.9565    3.9657    0.0908 H   0  0  0  0  0  0  0  0  0  0  0  0
    0.8422   -1.4970   -0.9848 O   0  5  0  0  0  0  0  0  0  0  0  0
   -0.3506   -1.9625   -0.6327 C   0  0  0  0  0  0  0  0  0  0  0  0
   -0.6700   -2.1845    0.7396 C   0  0  0  0  0  0  0  0  0  0  0  0
   -1.9526   -2.6444    1.0851 C   0  0  0  0  0  0  0  0  0  0  0  0
   -2.1883   -2.8105    2.1496 H   0  0  0  0  0  0  0  0  0  0  0  0
   -2.9166   -2.9185    0.1027 C   0  0  0  0  0  0  0  0  0  0  0  0
   -3.9119   -3.2884    0.3893 H   0  0  0  0  0  0  0  0  0  0  0  0
   -2.5856   -2.7329   -1.2521 C   0  0  0  0  0  0  0  0  0  0  0  0
   -3.3281   -2.9556   -2.0342 H   0  0  0  0  0  0  0  0  0  0  0  0
   -1.3227   -2.2550   -1.6193 C   0  0  0  0  0  0  0  0  0  0  0  0
   -1.0517   -2.0898   -2.6720 H   0  0  0  0  0  0  0  0  0  0  0  0
  1  2  1  0  0  0  0
  3  1  1  0  0  0  0
  4  1  1  0  0  0  0
  4  6  1  0  0  0  0
  4  5  1  0  0  0  0
  6  7  1  0  0  0  0
  6  8  1  0  0  0  0
  9 10  1  1  0  0  0
  9 11  1  0  0  0  0
  9  6  1  0  0  0  0
 11 12  1  0  0  0  0
 13 14  1  0  0  0  0
 13 11  1  0  0  0  0
 14 17  1  0  0  0  0
 14 16  1  0  0  0  0
 15 14  1  0  0  0  0
 18 20  1  0  0  0  0
 18 13  1  0  0  0  0
 19 18  1  0  0  0  0
 21 18  1  0  0  0  0
 22 13  1  0  0  0  0
 22 25  1  0  0  0  0
 23 22  1  0  0  0  0
 24 22  1  0  0  0  0
 26 27  1  0  0  0  0
 27 28  1  0  0  0  0
 28 29  2  0  0  0  0
 28  1  1  0  0  0  0
 29 30  1  0  0  0  0
 31 32  1  0  0  0  0
 31 29  1  0  0  0  0
 33 31  2  0  0  0  0
 34 33  1  0  0  0  0
 35 33  1  0  0  0  0
 35 27  2  0  0  0  0
 36 35  1  0  0  0  0
M  CHG  1  26  -1
M  END
