1,2,3
 OpenBabel05122313063D

 28 29  0  0  0  0  0  0  0  0999 V2000
    0.2502   -1.3865   -0.2734 N   0  0  0  0  0  2  0  0  0  0  0  0
   -1.8787    0.2630   -0.6544 O   0  5  0  0  0  0  0  0  0  0  0  0
    1.5848    0.6090   -1.5325 O   0  0  0  0  0  1  0  0  0  0  0  0
   -2.6550   -0.7591   -0.4579 C   0  0  0  0  0  0  0  0  0  0  0  0
   -4.0732   -0.6188   -0.5260 C   0  0  0  0  0  0  0  0  0  0  0  0
   -4.4772    0.3790   -0.7497 H   0  0  0  0  0  0  0  0  0  0  0  0
   -4.9064   -1.7136   -0.3164 C   0  0  0  0  0  0  0  0  0  0  0  0
   -5.9981   -1.5783   -0.3719 H   0  0  0  0  0  0  0  0  0  0  0  0
   -4.3768   -2.9979   -0.0347 C   0  0  0  0  0  0  0  0  0  0  0  0
   -5.0496   -3.8521    0.1278 H   0  0  0  0  0  0  0  0  0  0  0  0
   -2.9984   -3.1616    0.0279 C   0  0  0  0  0  0  0  0  0  0  0  0
   -2.5627   -4.1520    0.2391 H   0  0  0  0  0  0  0  0  0  0  0  0
   -2.1168   -2.0634   -0.1754 C   0  0  0  0  0  0  0  0  0  0  0  0
   -0.7041   -2.2806   -0.1175 C   0  0  0  0  0  3  0  0  0  0  0  0
   -0.3976   -3.3331    0.0619 H   0  0  0  0  0  0  0  0  0  0  0  0
    1.5772   -1.8677   -0.0978 C   0  0  0  0  0  0  0  0  0  0  0  0
    1.9179   -2.7123    0.9806 C   0  0  0  0  0  0  0  0  0  0  0  0
    1.1487   -2.9797    1.7205 H   0  0  0  0  0  0  0  0  0  0  0  0
    3.2311   -3.1814    1.1315 C   0  0  0  0  0  0  0  0  0  0  0  0
    3.4832   -3.8283    1.9853 H   0  0  0  0  0  0  0  0  0  0  0  0
    4.2182   -2.8123    0.2064 C   0  0  0  0  0  0  0  0  0  0  0  0
    5.2516   -3.1710    0.3239 H   0  0  0  0  0  0  0  0  0  0  0  0
    3.8842   -1.9612   -0.8599 C   0  0  0  0  0  0  0  0  0  0  0  0
    4.6571   -1.6516   -1.5812 H   0  0  0  0  0  0  0  0  0  0  0  0
    2.5775   -1.4793   -1.0233 C   0  0  0  0  0  0  0  0  0  0  0  0
    2.1917   -0.5054   -2.1122 C   0  0  0  0  0  0  0  0  0  0  0  0
    3.1015   -0.1987   -2.6782 H   0  0  0  0  0  0  0  0  0  0  0  0
    1.5127   -1.0072   -2.8486 H   0  0  0  0  0  0  0  0  0  0  0  0
  1 14  1  0  0  0  0
  1 16  1  0  0  0  0
  2  4  1  0  0  0  0
  4 13  1  0  0  0  0
  5  4  2  0  0  0  0
  5  7  1  0  0  0  0
  6  5  1  0  0  0  0
  7  9  2  0  0  0  0
  8  7  1  0  0  0  0
  9 11  1  0  0  0  0
  9 10  1  0  0  0  0
 11 12  1  0  0  0  0
 13 14  1  0  0  0  0
 13 11  2  0  0  0  0
 14 15  1  0  0  0  0
 16 17  1  0  0  0  0
 17 19  2  0  0  0  0
 17 18  1  0  0  0  0
 19 20  1  0  0  0  0
 21 22  1  0  0  0  0
 21 19  1  0  0  0  0
 23 21  2  0  0  0  0
 24 23  1  0  0  0  0
 25 23  1  0  0  0  0
 25 16  2  0  0  0  0
 26  3  1  0  0  0  0
 26 25  1  0  0  0  0
 27 26  1  0  0  0  0
 28 26  1  0  0  0  0
M  CHG  1   2  -1
M  END
