1,3,4
 OpenBabel05122313063D

 35 36  0  0  0  0  0  0  0  0999 V2000
    1.0988    1.1873   -0.0286 N   0  0  0  0  0  2  0  0  0  0  0  0
    0.0359    1.9764    0.2887 N   0  0  0  0  0  0  0  0  0  0  0  0
    2.3493   -1.0350   -0.8116 O   0  5  0  0  0  0  0  0  0  0  0  0
   -0.9269    0.5708   -1.2389 O   0  5  0  0  0  0  0  0  0  0  0  0
   -1.5885    3.9066    1.2330 O   0  0  0  0  0  0  0  0  0  0  0  0
    3.4515    0.7031    0.4157 C   0  0  0  0  0  0  0  0  0  0  0  0
    3.4529   -0.5503   -0.2784 C   0  0  0  0  0  0  0  0  0  0  0  0
    4.6604   -1.2876   -0.3427 C   0  0  0  0  0  0  0  0  0  0  0  0
    4.6490   -2.2511   -0.8719 H   0  0  0  0  0  0  0  0  0  0  0  0
    5.8227   -0.7947    0.2491 C   0  0  0  0  0  0  0  0  0  0  0  0
    6.7501   -1.3860    0.1775 H   0  0  0  0  0  0  0  0  0  0  0  0
    5.8473    0.4438    0.9422 C   0  0  0  0  0  0  0  0  0  0  0  0
    4.6528    1.1640    1.0171 C   0  0  0  0  0  0  0  0  0  0  0  0
    4.6297    2.1270    1.5531 H   0  0  0  0  0  0  0  0  0  0  0  0
    7.1233    0.9487    1.5677 C   0  0  0  0  0  0  0  0  0  0  0  0
    7.9114    1.1160    0.8034 H   0  0  0  0  0  0  0  0  0  0  0  0
    7.5348    0.2198    2.2972 H   0  0  0  0  0  0  0  0  0  0  0  0
    6.9645    1.9061    2.1006 H   0  0  0  0  0  0  0  0  0  0  0  0
    2.2413    1.4578    0.5657 C   0  0  0  0  0  3  0  0  0  0  0  0
    2.2371    2.3351    1.2383 H   0  0  0  0  0  0  0  0  0  0  0  0
   -1.0181    1.5886   -0.4084 C   0  0  0  0  0  0  0  0  0  0  0  0
   -2.3370    2.2429   -0.2997 C   0  0  0  0  0  0  0  0  0  0  0  0
   -2.6088    3.3855    0.5173 C   0  0  0  0  0  0  0  0  0  0  0  0
   -3.9153    3.9211    0.5433 C   0  0  0  0  0  0  0  0  0  0  0  0
   -4.1357    4.7973    1.1663 H   0  0  0  0  0  0  0  0  0  0  0  0
   -4.9408    3.3484   -0.2213 C   0  0  0  0  0  0  0  0  0  0  0  0
   -5.9494    3.7879   -0.1816 H   0  0  0  0  0  0  0  0  0  0  0  0
   -4.6856    2.2302   -1.0284 C   0  0  0  0  0  0  0  0  0  0  0  0
   -5.4873    1.7798   -1.6313 H   0  0  0  0  0  0  0  0  0  0  0  0
   -3.3947    1.6941   -1.0584 C   0  0  0  0  0  0  0  0  0  0  0  0
   -3.1589    0.8194   -1.6802 H   0  0  0  0  0  0  0  0  0  0  0  0
   -1.8223    5.0375    2.0481 C   0  0  0  0  0  0  0  0  0  0  0  0
   -2.1593    5.9170    1.4546 H   0  0  0  0  0  0  0  0  0  0  0  0
   -0.8541    5.2756    2.5260 H   0  0  0  0  0  0  0  0  0  0  0  0
   -2.5763    4.8315    2.8408 H   0  0  0  0  0  0  0  0  0  0  0  0
  1  2  1  0  0  0  0
  1 19  1  0  0  0  0
  3  7  1  0  0  0  0
  4 21  1  0  0  0  0
  5 32  1  0  0  0  0
  6 19  1  0  0  0  0
  6 13  1  0  0  0  0
  7  6  2  0  0  0  0
  8  7  1  0  0  0  0
  8 10  2  0  0  0  0
  9  8  1  0  0  0  0
 10 12  1  0  0  0  0
 11 10  1  0  0  0  0
 12 13  2  0  0  0  0
 12 15  1  0  0  0  0
 13 14  1  0  0  0  0
 15 18  1  0  0  0  0
 15 17  1  0  0  0  0
 16 15  1  0  0  0  0
 19 20  1  0  0  0  0
 21 22  1  0  0  0  0
 21  2  2  0  0  0  0
 22 23  1  0  0  0  0
 23 24  2  0  0  0  0
 23  5  1  0  0  0  0
 24 25  1  0  0  0  0
 26 27  1  0  0  0  0
 26 24  1  0  0  0  0
 28 26  2  0  0  0  0
 29 28  1  0  0  0  0
 30 28  1  0  0  0  0
 30 22  2  0  0  0  0
 31 30  1  0  0  0  0
 32 34  1  0  0  0  0
 32 35  1  0  0  0  0
 33 32  1  0  0  0  0
M  CHG  2   3  -1   4  -1
M  END
