2,3,5
 OpenBabel05122313063D

 32 33  0  0  0  0  0  0  0  0999 V2000
   -6.1746    3.2044    0.6987 Cl  0  0  0  0  0  0  0  0  0  0  0  0
   -2.3326   -1.1168   -0.4805 O   0  5  0  0  0  0  0  0  0  0  0  0
    1.4524   -0.8621   -0.9571 O   0  5  0  0  0  0  0  0  0  0  0  0
    5.6080    3.3152    0.5376 O   0  0  0  0  0  0  0  0  0  0  0  0
   -0.3275    0.7696   -0.2670 N   0  0  0  0  0  2  0  0  0  0  0  0
    0.9431    1.2386   -0.1283 N   0  0  0  0  0  0  0  0  0  0  0  0
   -2.7037    1.2193    0.0439 C   0  0  0  0  0  0  0  0  0  0  0  0
   -3.1644   -0.1078   -0.2366 C   0  0  0  0  0  0  0  0  0  0  0  0
   -4.5528   -0.3701   -0.2217 C   0  0  0  0  0  0  0  0  0  0  0  0
   -4.8841   -1.3954   -0.4387 H   0  0  0  0  0  0  0  0  0  0  0  0
   -5.4756    0.6393    0.0598 C   0  0  0  0  0  0  0  0  0  0  0  0
   -6.5539    0.4266    0.0662 H   0  0  0  0  0  0  0  0  0  0  0  0
   -5.0208    1.9432    0.3419 C   0  0  0  0  0  0  0  0  0  0  0  0
   -3.6555    2.2285    0.3382 C   0  0  0  0  0  0  0  0  0  0  0  0
   -3.3100    3.2485    0.5609 H   0  0  0  0  0  0  0  0  0  0  0  0
   -1.3041    1.5710    0.0747 C   0  0  0  0  0  3  0  0  0  0  0  0
   -1.0238    2.5865    0.4134 H   0  0  0  0  0  0  0  0  0  0  0  0
    1.8151    0.3260   -0.5175 C   0  0  0  0  0  0  0  0  0  0  0  0
    3.2617    0.6108   -0.4408 C   0  0  0  0  0  0  0  0  0  0  0  0
    3.7031    1.8709    0.0239 C   0  0  0  0  0  0  0  0  0  0  0  0
    2.9411    2.6075    0.3070 H   0  0  0  0  0  0  0  0  0  0  0  0
    5.0794    2.1378    0.1065 C   0  0  0  0  0  0  0  0  0  0  0  0
    6.0113    1.1433   -0.2742 C   0  0  0  0  0  0  0  0  0  0  0  0
    7.0827    1.3798   -0.2008 H   0  0  0  0  0  0  0  0  0  0  0  0
    5.5630   -0.0987   -0.7332 C   0  0  0  0  0  0  0  0  0  0  0  0
    6.2976   -0.8622   -1.0306 H   0  0  0  0  0  0  0  0  0  0  0  0
    4.1899   -0.3776   -0.8216 C   0  0  0  0  0  0  0  0  0  0  0  0
    3.8207   -1.3465   -1.1836 H   0  0  0  0  0  0  0  0  0  0  0  0
    4.7161    4.3481    0.9139 C   0  0  0  0  0  0  0  0  0  0  0  0
    4.0612    4.6584    0.0691 H   0  0  0  0  0  0  0  0  0  0  0  0
    5.3423    5.2066    1.2196 H   0  0  0  0  0  0  0  0  0  0  0  0
    4.0699    4.0475    1.7691 H   0  0  0  0  0  0  0  0  0  0  0  0
  2  8  1  0  0  0  0
  3 18  1  0  0  0  0
  4 29  1  0  0  0  0
  5  6  1  0  0  0  0
  5 16  1  0  0  0  0
  7 16  1  0  0  0  0
  7 14  1  0  0  0  0
  8  9  1  0  0  0  0
  8  7  2  0  0  0  0
  9 11  2  0  0  0  0
 10  9  1  0  0  0  0
 11 12  1  0  0  0  0
 11 13  1  0  0  0  0
 13  1  1  0  0  0  0
 14 13  2  0  0  0  0
 14 15  1  0  0  0  0
 16 17  1  0  0  0  0
 18 19  1  0  0  0  0
 18  6  2  0  0  0  0
 19 20  1  0  0  0  0
 20 22  2  0  0  0  0
 20 21  1  0  0  0  0
 22  4  1  0  0  0  0
 23 24  1  0  0  0  0
 23 22  1  0  0  0  0
 25 23  2  0  0  0  0
 26 25  1  0  0  0  0
 27 25  1  0  0  0  0
 27 19  2  0  0  0  0
 28 27  1  0  0  0  0
 29 31  1  0  0  0  0
 29 32  1  0  0  0  0
 30 29  1  0  0  0  0
M  CHG  2   2  -1   3  -1
M  END
