1,2,4
 OpenBabel05122313063D

 39 41  0  0  1  0  0  0  0  0999 V2000
   -0.9487   -1.7475   -0.7172 O   0  5  0  0  0  0  0  0  0  0  0  0
   -3.1890    0.8063    0.6721 O   0  5  0  0  0  0  0  0  0  0  0  0
   -3.1918    2.7334    1.8464 O   0  0  0  0  0  0  0  0  0  0  0  0
   -0.6834    0.6120    0.4781 N   0  0  0  0  0  2  0  0  0  0  0  0
    0.3262   -1.9445   -0.4764 C   0  0  0  0  0  0  0  0  0  0  0  0
    0.8928   -3.1916   -0.8965 C   0  0  0  0  0  0  0  0  0  0  0  0
    0.2237   -3.9117   -1.3883 H   0  0  0  0  0  0  0  0  0  0  0  0
    2.2273   -3.4600   -0.6850 C   0  0  0  0  0  0  0  0  0  0  0  0
    2.6510   -4.4241   -1.0082 H   0  0  0  0  0  0  0  0  0  0  0  0
    3.0978   -2.5085   -0.0662 C   0  0  0  0  0  0  0  0  0  0  0  0
    4.4814   -2.7878    0.1100 C   0  0  0  0  0  0  0  0  0  0  0  0
    4.8658   -3.7640   -0.2249 H   0  0  0  0  0  0  0  0  0  0  0  0
    5.3328   -1.8524    0.6814 C   0  0  0  0  0  0  0  0  0  0  0  0
    6.4019   -2.0766    0.8110 H   0  0  0  0  0  0  0  0  0  0  0  0
    4.8138   -0.5987    1.0864 C   0  0  0  0  0  0  0  0  0  0  0  0
    5.4852    0.1562    1.5230 H   0  0  0  0  0  0  0  0  0  0  0  0
    3.4642   -0.3014    0.9320 C   0  0  0  0  0  0  0  0  0  0  0  0
    3.1116    0.6935    1.2361 H   0  0  0  0  0  0  0  0  0  0  0  0
    2.5587   -1.2440    0.3657 C   0  0  0  0  0  0  0  0  0  0  0  0
    1.1431   -0.9832    0.1811 C   0  0  0  0  0  0  0  0  0  0  0  0
    0.5552    0.2408    0.6490 C   0  0  0  0  0  3  0  0  0  0  0  0
    1.2125    0.9341    1.2054 H   0  0  0  0  0  0  0  0  0  0  0  0
   -1.0984    1.9224    0.9366 C   0  0  2  0  0  0  0  0  0  0  0  0
   -0.5716    2.2119    1.8724 H   0  0  0  0  0  0  0  0  0  0  0  0
   -2.6087    1.8697    1.2186 C   0  0  0  0  0  0  0  0  0  0  0  0
   -0.8176    3.0169   -0.1398 C   0  0  0  0  0  0  0  0  0  0  0  0
   -1.1907    3.9708    0.2836 H   0  0  0  0  0  0  0  0  0  0  0  0
   -1.4187    2.7781   -1.0395 H   0  0  0  0  0  0  0  0  0  0  0  0
    0.6473    3.0890   -0.4813 C   0  0  0  0  0  0  0  0  0  0  0  0
    1.1719    2.3102   -1.5346 C   0  0  0  0  0  0  0  0  0  0  0  0
    0.4821    1.7142   -2.1525 H   0  0  0  0  0  0  0  0  0  0  0  0
    2.5530    2.2741   -1.7821 C   0  0  0  0  0  0  0  0  0  0  0  0
    2.9448    1.6537   -2.6022 H   0  0  0  0  0  0  0  0  0  0  0  0
    3.4323    3.0174   -0.9796 C   0  0  0  0  0  0  0  0  0  0  0  0
    4.5157    2.9845   -1.1695 H   0  0  0  0  0  0  0  0  0  0  0  0
    2.9219    3.8025    0.0680 C   0  0  0  0  0  0  0  0  0  0  0  0
    3.6046    4.3955    0.6959 H   0  0  0  0  0  0  0  0  0  0  0  0
    1.5410    3.8352    0.3149 C   0  0  0  0  0  0  0  0  0  0  0  0
    1.1455    4.4481    1.1411 H   0  0  0  0  0  0  0  0  0  0  0  0
  1  5  1  0  0  0  0
  2 25  1  0  0  0  0
  4 21  1  0  0  0  0
  4 23  1  0  0  0  0
  5 20  1  0  0  0  0
  6  8  1  0  0  0  0
  6  5  2  0  0  0  0
  7  6  1  0  0  0  0
  8 10  2  0  0  0  0
  9  8  1  0  0  0  0
 10 11  1  0  0  0  0
 10 19  1  0  0  0  0
 11 13  2  0  0  0  0
 12 11  1  0  0  0  0
 13 14  1  0  0  0  0
 13 15  1  0  0  0  0
 15 16  1  0  0  0  0
 17 15  2  0  0  0  0
 17 18  1  0  0  0  0
 19 17  1  0  0  0  0
 20 19  2  0  0  0  0
 20 21  1  0  0  0  0
 21 22  1  0  0  0  0
 23 25  1  0  0  0  0
 23 24  1  1  0  0  0
 25  3  2  0  0  0  0
 26 27  1  0  0  0  0
 26 23  1  0  0  0  0
 28 26  1  0  0  0  0
 29 26  1  0  0  0  0
 29 38  1  0  0  0  0
 30 29  2  0  0  0  0
 31 30  1  0  0  0  0
 32 30  1  0  0  0  0
 32 34  2  0  0  0  0
 33 32  1  0  0  0  0
 34 36  1  0  0  0  0
 35 34  1  0  0  0  0
 36 38  2  0  0  0  0
 36 37  1  0  0  0  0
 38 39  1  0  0  0  0
M  CHG  2   1  -1   2  -1
M  END
