1,2,4
 OpenBabel05122313063D

 35 36  0  0  1  0  0  0  0  0999 V2000
    0.4769   -1.2170   -0.6272 O   0  5  0  0  0  0  0  0  0  0  0  0
   -2.9561   -0.5917    0.5118 O   0  5  0  0  0  0  0  0  0  0  0  0
   -4.3394    0.9585    1.3710 O   0  0  0  0  0  0  0  0  0  0  0  0
   -0.9828    0.9307    0.1474 N   0  0  0  0  0  2  0  0  0  0  0  0
    1.5599   -0.5041   -0.3885 C   0  0  0  0  0  0  0  0  0  0  0  0
    2.8288   -1.0557   -0.6023 C   0  0  0  0  0  0  0  0  0  0  0  0
    2.8888   -2.0881   -0.9760 H   0  0  0  0  0  0  0  0  0  0  0  0
    4.0131   -0.3178   -0.3481 C   0  0  0  0  0  0  0  0  0  0  0  0
    5.3134   -0.8691   -0.5599 C   0  0  0  0  0  0  0  0  0  0  0  0
    5.3952   -1.9010   -0.9343 H   0  0  0  0  0  0  0  0  0  0  0  0
    6.4526   -0.1226   -0.3021 C   0  0  0  0  0  0  0  0  0  0  0  0
    7.4459   -0.5652   -0.4728 H   0  0  0  0  0  0  0  0  0  0  0  0
    6.3552    1.2134    0.1812 C   0  0  0  0  0  0  0  0  0  0  0  0
    7.2705    1.7905    0.3800 H   0  0  0  0  0  0  0  0  0  0  0  0
    5.1108    1.7810    0.3983 C   0  0  0  0  0  0  0  0  0  0  0  0
    5.0230    2.8135    0.7713 H   0  0  0  0  0  0  0  0  0  0  0  0
    3.9164    1.0414    0.1432 C   0  0  0  0  0  0  0  0  0  0  0  0
    2.6286    1.5864    0.3545 C   0  0  0  0  0  0  0  0  0  0  0  0
    2.5403    2.6196    0.7288 H   0  0  0  0  0  0  0  0  0  0  0  0
    1.4612    0.8546    0.1012 C   0  0  0  0  0  0  0  0  0  0  0  0
    0.1794    1.4698    0.3522 C   0  0  0  0  0  3  0  0  0  0  0  0
    0.2175    2.4983    0.7732 H   0  0  0  0  0  0  0  0  0  0  0  0
   -2.1765    1.6750    0.5379 C   0  0  1  0  0  0  0  0  0  0  0  0
   -1.9749    2.2321    1.4798 H   0  0  0  0  0  0  0  0  0  0  0  0
   -2.6231    2.7259   -0.5244 C   0  0  0  0  0  0  0  0  0  0  0  0
   -1.6905    3.2795   -0.7820 H   0  0  0  0  0  0  0  0  0  0  0  0
   -3.6142    3.7186    0.0936 C   0  0  0  0  0  0  0  0  0  0  0  0
   -3.9129    4.4787   -0.6559 H   0  0  0  0  0  0  0  0  0  0  0  0
   -4.5215    3.1922    0.4483 H   0  0  0  0  0  0  0  0  0  0  0  0
   -3.1731    4.2487    0.9629 H   0  0  0  0  0  0  0  0  0  0  0  0
   -3.1747    2.0922   -1.8048 C   0  0  0  0  0  0  0  0  0  0  0  0
   -3.4052    2.8793   -2.5505 H   0  0  0  0  0  0  0  0  0  0  0  0
   -2.4635    1.3778   -2.2599 H   0  0  0  0  0  0  0  0  0  0  0  0
   -4.1166    1.5431   -1.5978 H   0  0  0  0  0  0  0  0  0  0  0  0
   -3.2803    0.6475    0.8533 C   0  0  0  0  0  0  0  0  0  0  0  0
  1  5  1  0  0  0  0
  2 35  1  0  0  0  0
  4 21  1  0  0  0  0
  4 23  1  0  0  0  0
  5 20  1  0  0  0  0
  6  5  2  0  0  0  0
  6  8  1  0  0  0  0
  7  6  1  0  0  0  0
  8 17  1  0  0  0  0
  9  8  2  0  0  0  0
  9 11  1  0  0  0  0
 10  9  1  0  0  0  0
 11 13  2  0  0  0  0
 12 11  1  0  0  0  0
 13 14  1  0  0  0  0
 13 15  1  0  0  0  0
 15 16  1  0  0  0  0
 17 18  1  0  0  0  0
 17 15  2  0  0  0  0
 18 19  1  0  0  0  0
 20 21  1  0  0  0  0
 20 18  2  0  0  0  0
 21 22  1  0  0  0  0
 23 35  1  0  0  0  0
 23 24  1  1  0  0  0
 25 27  1  0  0  0  0
 25 23  1  0  0  0  0
 26 25  1  0  0  0  0
 27 29  1  0  0  0  0
 27 30  1  0  0  0  0
 28 27  1  0  0  0  0
 31 34  1  0  0  0  0
 31 25  1  0  0  0  0
 32 31  1  0  0  0  0
 33 31  1  0  0  0  0
 35  3  2  0  0  0  0
M  CHG  2   1  -1   2  -1
M  END
