1,3,4
 OpenBabel05122313063D

 34 34  0  0  0  0  0  0  0  0999 V2000
   -0.4157   -1.8991   -0.1034 N   0  0  0  0  0  2  0  0  0  0  0  0
    0.6631   -2.7150   -0.3180 N   0  0  0  0  0  0  0  0  0  0  0  0
   -1.6803    0.4051    0.2001 O   0  5  0  0  0  0  0  0  0  0  0  0
    1.7007   -0.9327    0.6704 O   0  5  0  0  0  0  0  0  0  0  0  0
   -3.9168    1.8229    0.2595 O   0  0  0  0  0  0  0  0  0  0  0  0
   -2.8216   -1.6076   -0.4118 C   0  0  0  0  0  0  0  0  0  0  0  0
   -2.8054   -0.2237   -0.0724 C   0  0  0  0  0  0  0  0  0  0  0  0
   -4.0349    0.5101   -0.0661 C   0  0  0  0  0  0  0  0  0  0  0  0
   -5.2329   -0.1459   -0.3837 C   0  0  0  0  0  0  0  0  0  0  0  0
   -6.1809    0.4086   -0.3736 H   0  0  0  0  0  0  0  0  0  0  0  0
   -5.2387   -1.5193   -0.7195 C   0  0  0  0  0  0  0  0  0  0  0  0
   -6.1921   -2.0092   -0.9648 H   0  0  0  0  0  0  0  0  0  0  0  0
   -4.0516   -2.2414   -0.7414 C   0  0  0  0  0  0  0  0  0  0  0  0
   -4.0453   -3.3094   -1.0060 H   0  0  0  0  0  0  0  0  0  0  0  0
   -1.5891   -2.3446   -0.4841 C   0  0  0  0  0  3  0  0  0  0  0  0
   -1.6059   -3.3665   -0.9058 H   0  0  0  0  0  0  0  0  0  0  0  0
    1.7492   -2.1210    0.1258 C   0  0  0  0  0  0  0  0  0  0  0  0
    3.1159   -2.7786    0.0078 C   0  0  0  0  0  0  0  0  0  0  0  0
    3.9986   -1.8520   -0.8589 C   0  0  0  0  0  0  0  0  0  0  0  0
    3.5740   -1.7396   -1.8770 H   0  0  0  0  0  0  0  0  0  0  0  0
    5.0188   -2.2769   -0.9519 H   0  0  0  0  0  0  0  0  0  0  0  0
    4.0745   -0.8448   -0.4046 H   0  0  0  0  0  0  0  0  0  0  0  0
    3.7160   -2.8916    1.4259 C   0  0  0  0  0  0  0  0  0  0  0  0
    3.7638   -1.8983    1.9127 H   0  0  0  0  0  0  0  0  0  0  0  0
    4.7411   -3.3113    1.3724 H   0  0  0  0  0  0  0  0  0  0  0  0
    3.1025   -3.5587    2.0644 H   0  0  0  0  0  0  0  0  0  0  0  0
    3.0019   -4.1656   -0.6398 C   0  0  0  0  0  0  0  0  0  0  0  0
    2.3544   -4.8344   -0.0406 H   0  0  0  0  0  0  0  0  0  0  0  0
    4.0077   -4.6262   -0.7204 H   0  0  0  0  0  0  0  0  0  0  0  0
    2.5602   -4.0994   -1.6526 H   0  0  0  0  0  0  0  0  0  0  0  0
   -5.0921    2.6058    0.2927 C   0  0  0  0  0  0  0  0  0  0  0  0
   -5.5946    2.6445   -0.7007 H   0  0  0  0  0  0  0  0  0  0  0  0
   -4.7801    3.6275    0.5779 H   0  0  0  0  0  0  0  0  0  0  0  0
   -5.8222    2.2279    1.0443 H   0  0  0  0  0  0  0  0  0  0  0  0
  2  1  1  0  0  0  0
  2 17  2  0  0  0  0
  5 31  1  0  0  0  0
  6  7  1  0  0  0  0
  7  8  2  0  0  0  0
  7  3  1  0  0  0  0
  8  5  1  0  0  0  0
  9 10  1  0  0  0  0
  9  8  1  0  0  0  0
 11  9  2  0  0  0  0
 12 11  1  0  0  0  0
 13 11  1  0  0  0  0
 13  6  2  0  0  0  0
 14 13  1  0  0  0  0
 15  6  1  0  0  0  0
 15  1  1  0  0  0  0
 16 15  1  0  0  0  0
 17  4  1  0  0  0  0
 18 17  1  0  0  0  0
 18 23  1  0  0  0  0
 19 22  1  0  0  0  0
 19 18  1  0  0  0  0
 20 19  1  0  0  0  0
 21 19  1  0  0  0  0
 23 24  1  0  0  0  0
 23 26  1  0  0  0  0
 25 23  1  0  0  0  0
 27 28  1  0  0  0  0
 27 18  1  0  0  0  0
 29 27  1  0  0  0  0
 30 27  1  0  0  0  0
 31 33  1  0  0  0  0
 31 34  1  0  0  0  0
 32 31  1  0  0  0  0
M  CHG  2   3  -1   4  -1
M  END
