2,4,8
 OpenBabel05122313063D

 33 33  0  0  0  0  0  0  0  0999 V2000
   -2.1605    3.5049   -1.0495 O   0  0  0  0  0  0  0  0  0  0  0  0
   -1.3668    0.7136   -0.0215 N   0  0  0  0  0  2  0  0  0  0  0  0
   -3.9170    3.0332    1.2298 O   0  0  0  0  0  0  0  0  0  0  0  0
    0.3567   -1.4753    0.0790 O   0  5  0  0  0  0  0  0  0  0  0  0
    1.0708    0.8392   -0.0716 C   0  0  0  0  0  0  0  0  0  0  0  0
   -0.2598    1.3932   -0.0456 C   0  0  0  0  0  0  0  0  0  0  0  0
    2.1530    1.7410   -0.1178 C   0  0  0  0  0  3  0  0  0  0  0  0
   -3.2177   -0.7777   -0.9306 O   0  0  0  0  0  1  0  0  0  0  0  0
    4.2929    3.4282   -0.1916 O   0  0  0  0  0  0  0  0  0  0  0  0
   -2.8172    2.1463    1.3668 C   0  0  0  0  0  0  0  0  0  0  0  0
   -2.6973    1.3524    0.0508 C   0  0  0  0  0  0  0  0  0  0  0  0
    5.7203    1.7740   -0.0424 O   0  0  0  0  0  0  0  0  0  0  0  0
    3.0373   -2.4391    0.1976 N   0  0  0  0  0  0  0  0  0  0  0  0
   -2.8965    2.3056   -1.1669 C   0  0  0  0  0  0  0  0  0  0  0  0
    2.2631   -3.2577   -0.2854 O   0  0  0  0  0  0  0  0  0  0  0  0
    1.2942   -0.5977    0.0193 C   0  0  0  0  0  0  0  0  0  0  0  0
    4.5801    2.2331   -0.1008 N   0  0  0  0  0  0  0  0  0  0  0  0
    4.1102   -2.6984    0.7466 O   0  0  0  0  0  0  0  0  0  0  0  0
    3.7319   -0.0982    0.0693 C   0  0  0  0  0  0  0  0  0  0  0  0
    2.6799   -1.0035    0.0946 C   0  0  0  0  0  0  0  0  0  0  0  0
    3.4623    1.2729   -0.0560 C   0  0  0  0  0  0  0  0  0  0  0  0
   -3.6814    0.1602   -0.0218 C   0  0  0  0  0  0  0  0  0  0  0  0
   -0.3469    2.4988   -0.0677 H   0  0  0  0  0  0  0  0  0  0  0  0
    1.9842    2.8247   -0.1932 H   0  0  0  0  0  0  0  0  0  0  0  0
   -2.9453    1.4248    2.2072 H   0  0  0  0  0  0  0  0  0  0  0  0
   -1.8677    2.7023    1.5535 H   0  0  0  0  0  0  0  0  0  0  0  0
   -3.9849    2.5040   -1.2634 H   0  0  0  0  0  0  0  0  0  0  0  0
   -2.5587    1.7724   -2.0776 H   0  0  0  0  0  0  0  0  0  0  0  0
    4.7659   -0.4590    0.1491 H   0  0  0  0  0  0  0  0  0  0  0  0
   -4.7051    0.4738   -0.3383 H   0  0  0  0  0  0  0  0  0  0  0  0
   -3.7928   -0.2611    1.0091 H   0  0  0  0  0  0  0  0  0  0  0  0
   -2.6518    4.0421   -0.3943 H   0  0  0  0  0  0  0  0  0  0  0  0
   -4.1338    3.3919    2.1086 H   0  0  0  0  0  0  0  0  0  0  0  0
  1 32  1  0  0  0  0
  2 11  1  0  0  0  0
  3 10  1  0  0  0  0
  3 33  1  0  0  0  0
  5  6  2  0  0  0  0
  5 16  1  0  0  0  0
  6  2  1  0  0  0  0
  7  5  1  0  0  0  0
  7 21  1  0  0  0  0
  8 22  1  0  0  0  0
  9 17  2  0  0  0  0
 10 26  1  0  0  0  0
 10 25  1  0  0  0  0
 11 10  1  0  0  0  0
 13 18  2  0  0  0  0
 14  1  1  0  0  0  0
 14 11  1  0  0  0  0
 15 13  2  0  0  0  0
 16  4  1  0  0  0  0
 16 20  2  0  0  0  0
 17 21  1  0  0  0  0
 17 12  2  0  0  0  0
 19 20  1  0  0  0  0
 19 29  1  0  0  0  0
 20 13  1  0  0  0  0
 21 19  2  0  0  0  0
 22 11  1  0  0  0  0
 22 31  1  0  0  0  0
 23  6  1  0  0  0  0
 24  7  1  0  0  0  0
 27 14  1  0  0  0  0
 28 14  1  0  0  0  0
 30 22  1  0  0  0  0
M  CHG  1   4  -1
M  END
