1,3,4
 OpenBabel05122313063D

 43 44  0  0  0  0  0  0  0  0999 V2000
    0.2106   -1.9628   -0.0656 N   0  0  0  0  0  2  0  0  0  0  0  0
   -1.1363   -2.0920    0.0767 N   0  0  0  0  0  0  0  0  0  0  0  0
    2.5277   -0.6826   -0.1515 O   0  5  0  0  0  0  0  0  0  0  0  0
   -1.0228    0.0830   -0.6344 O   0  5  0  0  0  0  0  0  0  0  0  0
    5.1722   -0.6914   -0.1363 O   0  0  0  0  0  0  0  0  0  0  0  0
   -5.6953    1.7320   -0.8538 O   0  0  0  0  0  0  0  0  0  0  0  0
   -6.0706   -2.8977    0.6600 O   0  0  0  0  0  0  0  0  0  0  0  0
    2.3867   -3.0469    0.1910 C   0  0  0  0  0  0  0  0  0  0  0  0
    3.1286   -1.8439    0.0088 C   0  0  0  0  0  0  0  0  0  0  0  0
    4.5595   -1.8889    0.0387 C   0  0  0  0  0  0  0  0  0  0  0  0
    5.2074   -3.1166    0.2398 C   0  0  0  0  0  0  0  0  0  0  0  0
    6.3045   -3.1617    0.2579 H   0  0  0  0  0  0  0  0  0  0  0  0
    4.4630   -4.3051    0.4210 C   0  0  0  0  0  0  0  0  0  0  0  0
    4.9956   -5.2545    0.5769 H   0  0  0  0  0  0  0  0  0  0  0  0
    3.0739   -4.2745    0.4041 C   0  0  0  0  0  0  0  0  0  0  0  0
    2.4871   -5.1942    0.5477 H   0  0  0  0  0  0  0  0  0  0  0  0
    0.9505   -3.0113    0.2182 C   0  0  0  0  0  3  0  0  0  0  0  0
    0.4023   -3.9257    0.5099 H   0  0  0  0  0  0  0  0  0  0  0  0
   -1.7231   -0.9557   -0.2544 C   0  0  0  0  0  0  0  0  0  0  0  0
   -3.1953   -0.8337   -0.1968 C   0  0  0  0  0  0  0  0  0  0  0  0
   -3.7917    0.3902   -0.5502 C   0  0  0  0  0  0  0  0  0  0  0  0
   -3.1745    1.2400   -0.8673 H   0  0  0  0  0  0  0  0  0  0  0  0
   -5.1904    0.5160   -0.4971 C   0  0  0  0  0  0  0  0  0  0  0  0
   -5.9933   -0.5726   -0.0934 C   0  0  0  0  0  0  0  0  0  0  0  0
   -7.0832   -0.4718   -0.0532 H   0  0  0  0  0  0  0  0  0  0  0  0
   -5.3762   -1.7945    0.2586 C   0  0  0  0  0  0  0  0  0  0  0  0
   -3.9796   -1.9301    0.2089 C   0  0  0  0  0  0  0  0  0  0  0  0
   -3.5068   -2.8811    0.4836 H   0  0  0  0  0  0  0  0  0  0  0  0
   -7.4790   -2.8246    0.7253 C   0  0  0  0  0  0  0  0  0  0  0  0
   -7.8254   -2.0534    1.4509 H   0  0  0  0  0  0  0  0  0  0  0  0
   -7.8298   -3.8166    1.0661 H   0  0  0  0  0  0  0  0  0  0  0  0
   -7.9337   -2.6055   -0.2678 H   0  0  0  0  0  0  0  0  0  0  0  0
   -7.0950    1.9155   -0.8311 C   0  0  0  0  0  0  0  0  0  0  0  0
   -7.6193    1.2225   -1.5282 H   0  0  0  0  0  0  0  0  0  0  0  0
   -7.2813    2.9560   -1.1566 H   0  0  0  0  0  0  0  0  0  0  0  0
   -7.5193    1.7778    0.1898 H   0  0  0  0  0  0  0  0  0  0  0  0
    6.5943   -0.6480   -0.1344 C   0  0  0  0  0  0  0  0  0  0  0  0
    6.9961   -1.3111   -0.9367 H   0  0  0  0  0  0  0  0  0  0  0  0
    6.9859   -1.0334    0.8369 H   0  0  0  0  0  0  0  0  0  0  0  0
    7.0160    0.7919   -0.3579 C   0  0  0  0  0  0  0  0  0  0  0  0
    6.6290    1.1653   -1.3263 H   0  0  0  0  0  0  0  0  0  0  0  0
    8.1208    0.8725   -0.3650 H   0  0  0  0  0  0  0  0  0  0  0  0
    6.6204    1.4436    0.4459 H   0  0  0  0  0  0  0  0  0  0  0  0
  1  2  1  0  0  0  0
  1 17  1  0  0  0  0
  3  9  1  0  0  0  0
  4 19  1  0  0  0  0
  5 37  1  0  0  0  0
  5 10  1  0  0  0  0
  6 33  1  0  0  0  0
  6 23  1  0  0  0  0
  7 29  1  0  0  0  0
  8 17  1  0  0  0  0
  8 15  1  0  0  0  0
  9 10  1  0  0  0  0
  9  8  2  0  0  0  0
 10 11  2  0  0  0  0
 11 12  1  0  0  0  0
 11 13  1  0  0  0  0
 13 14  1  0  0  0  0
 15 13  2  0  0  0  0
 15 16  1  0  0  0  0
 17 18  1  0  0  0  0
 19 20  1  0  0  0  0
 19  2  2  0  0  0  0
 20 27  1  0  0  0  0
 21 23  1  0  0  0  0
 21 20  2  0  0  0  0
 22 21  1  0  0  0  0
 23 24  2  0  0  0  0
 24 25  1  0  0  0  0
 24 26  1  0  0  0  0
 26  7  1  0  0  0  0
 27 26  2  0  0  0  0
 27 28  1  0  0  0  0
 29 31  1  0  0  0  0
 29 30  1  0  0  0  0
 32 29  1  0  0  0  0
 33 36  1  0  0  0  0
 34 33  1  0  0  0  0
 35 33  1  0  0  0  0
 37 39  1  0  0  0  0
 38 37  1  0  0  0  0
 40 37  1  0  0  0  0
 40 43  1  0  0  0  0
 41 40  1  0  0  0  0
 42 40  1  0  0  0  0
M  CHG  2   3  -1   4  -1
M  END
