1,2,3
 OpenBabel05122313063D

 25 26  0  0  1  0  0  0  0  0999 V2000
    2.0473    0.6830    0.0027 O   0  5  0  0  0  0  0  0  0  0  0  0
   -1.6402    0.6290   -0.0053 O   0  0  0  0  0  1  0  0  0  0  0  0
    0.3759   -1.2514   -0.0001 N   0  0  0  0  0  2  0  0  0  0  0  0
    2.6041   -0.5150    0.0013 C   0  0  0  0  0  0  0  0  0  0  0  0
    4.0052   -0.7259    0.0020 C   0  0  0  0  0  0  0  0  0  0  0  0
    4.5059   -2.0312   -0.0000 C   0  0  0  0  0  0  0  0  0  0  0  0
    3.6378   -3.1452   -0.0026 C   0  0  0  0  0  0  0  0  0  0  0  0
    2.2507   -2.9545   -0.0030 C   0  0  0  0  0  0  0  0  0  0  0  0
    1.7342   -1.6443   -0.0008 C   0  0  0  0  0  0  0  0  0  0  0  0
   -0.6271   -2.1097    0.0016 C   0  0  0  0  0  0  0  0  0  0  0  0
   -2.0136   -1.7697    0.0013 C   0  0  0  0  0  0  0  0  0  0  0  0
   -2.9851   -2.8129    0.0042 C   0  0  0  0  0  0  0  0  0  0  0  0
   -4.3471   -2.5423    0.0037 C   0  0  0  0  0  0  0  0  0  0  0  0
   -4.7800   -1.1934    0.0001 C   0  0  0  0  0  0  0  0  0  0  0  0
   -3.8607   -0.1494   -0.0029 C   0  0  0  0  0  0  0  0  0  0  0  0
   -2.4548   -0.3953   -0.0023 C   0  0  2  0  0  3  0  0  0  0  0  0
    4.6717    0.1489    0.0038 H   0  0  0  0  0  0  0  0  0  0  0  0
    5.5952   -2.1918    0.0002 H   0  0  0  0  0  0  0  0  0  0  0  0
    4.0487   -4.1654   -0.0045 H   0  0  0  0  0  0  0  0  0  0  0  0
    1.5815   -3.8274   -0.0054 H   0  0  0  0  0  0  0  0  0  0  0  0
   -0.3838   -3.1877    0.0034 H   0  0  0  0  0  0  0  0  0  0  0  0
   -2.6272   -3.8552    0.0069 H   0  0  0  0  0  0  0  0  0  0  0  0
   -5.0796   -3.3623    0.0061 H   0  0  0  0  0  0  0  0  0  0  0  0
   -5.8573   -0.9646   -0.0003 H   0  0  0  0  0  0  0  0  0  0  0  0
   -4.1918    0.8998   -0.0058 H   0  0  0  0  0  0  0  0  0  0  0  0
  3 10  1  0  0  0  0
  4  5  1  0  0  0  0
  4  1  1  0  0  0  0
  5 17  1  0  0  0  0
  6 18  1  0  0  0  0
  6  5  2  0  0  0  0
  7  6  1  0  0  0  0
  8  7  2  0  0  0  0
  8  9  1  0  0  0  0
  9  3  1  0  0  0  0
  9  4  2  0  0  0  0
 10 21  1  0  0  0  0
 11 10  2  0  0  0  0
 11 12  1  0  0  0  0
 12 22  1  0  0  0  0
 13 12  2  0  0  0  0
 13 23  1  0  0  0  0
 14 13  1  0  0  0  0
 15 16  1  0  0  0  0
 15 14  2  0  0  0  0
 16  2  1  6  0  0  0
 16 11  1  0  0  0  0
 19  7  1  0  0  0  0
 20  8  1  0  0  0  0
 24 14  1  0  0  0  0
 25 15  1  0  0  0  0
M  CHG  1   1  -1
M  END
