1,3,4
 OpenBabel05122313063D

 36 37  0  0  0  0  0  0  0  0999 V2000
   -0.4573   -1.0486    0.0655 N   0  0  0  0  0  2  0  0  0  0  0  0
    0.8484   -1.4125    0.0161 N   0  0  0  0  0  0  0  0  0  0  0  0
   -2.4928    0.5649   -0.3753 O   0  5  0  0  0  0  0  0  0  0  0  0
    1.0526    0.8724   -0.1118 O   0  5  0  0  0  0  0  0  0  0  0  0
   -5.0970    0.9990   -0.5066 O   0  0  0  0  0  0  0  0  0  0  0  0
    7.2242   -0.8139   -0.1526 O   0  0  0  0  0  0  0  0  0  0  0  0
   -3.2920   -0.4728   -0.1784 C   0  0  0  0  0  0  0  0  0  0  0  0
   -4.7076   -0.2767   -0.2605 C   0  0  0  0  0  0  0  0  0  0  0  0
   -5.5673   -1.3719   -0.0901 C   0  0  0  0  0  0  0  0  0  0  0  0
   -5.0491   -2.6638    0.1557 C   0  0  0  0  0  0  0  0  0  0  0  0
   -3.6773   -2.8705    0.2307 C   0  0  0  0  0  0  0  0  0  0  0  0
   -2.7787   -1.7785    0.0723 C   0  0  0  0  0  0  0  0  0  0  0  0
   -1.3595   -2.0035    0.1027 C   0  0  0  0  0  3  0  0  0  0  0  0
   -6.4819    1.2639   -0.6044 C   0  0  0  0  0  0  0  0  0  0  0  0
    1.5983   -0.3222   -0.0492 C   0  0  0  0  0  0  0  0  0  0  0  0
    3.0634   -0.4310   -0.0780 C   0  0  0  0  0  0  0  0  0  0  0  0
    3.7007   -1.6952   -0.0265 C   0  0  0  0  0  0  0  0  0  0  0  0
    5.0879   -1.7887   -0.0536 C   0  0  0  0  0  0  0  0  0  0  0  0
    5.8811   -0.6185   -0.1324 C   0  0  0  0  0  0  0  0  0  0  0  0
    5.2561    0.6465   -0.1838 C   0  0  0  0  0  0  0  0  0  0  0  0
    3.8587    0.7291   -0.1570 C   0  0  0  0  0  0  0  0  0  0  0  0
    8.0728    0.3173   -0.2293 C   0  0  0  0  0  0  0  0  0  0  0  0
   -6.6549   -1.2303   -0.1459 H   0  0  0  0  0  0  0  0  0  0  0  0
   -5.7448   -3.5054    0.2867 H   0  0  0  0  0  0  0  0  0  0  0  0
   -3.2667   -3.8739    0.4185 H   0  0  0  0  0  0  0  0  0  0  0  0
   -0.9828   -3.0425    0.1464 H   0  0  0  0  0  0  0  0  0  0  0  0
   -6.9556    0.6958   -1.4369 H   0  0  0  0  0  0  0  0  0  0  0  0
   -6.5796    2.3465   -0.8064 H   0  0  0  0  0  0  0  0  0  0  0  0
   -7.0187    1.0223    0.3410 H   0  0  0  0  0  0  0  0  0  0  0  0
    3.0751   -2.5969    0.0349 H   0  0  0  0  0  0  0  0  0  0  0  0
    5.6000   -2.7609   -0.0143 H   0  0  0  0  0  0  0  0  0  0  0  0
    5.8496    1.5682   -0.2449 H   0  0  0  0  0  0  0  0  0  0  0  0
    3.3591    1.7075   -0.1964 H   0  0  0  0  0  0  0  0  0  0  0  0
    7.9012    0.9010   -1.1612 H   0  0  0  0  0  0  0  0  0  0  0  0
    9.1088   -0.0689   -0.2324 H   0  0  0  0  0  0  0  0  0  0  0  0
    7.9410    0.9936    0.6447 H   0  0  0  0  0  0  0  0  0  0  0  0
  1 13  1  0  0  0  0
  2  1  1  0  0  0  0
  3  7  1  0  0  0  0
  4 15  1  0  0  0  0
  5  8  1  0  0  0  0
  6 19  1  0  0  0  0
  7 12  1  0  0  0  0
  8  7  2  0  0  0  0
  8  9  1  0  0  0  0
  9 10  2  0  0  0  0
 10 11  1  0  0  0  0
 10 24  1  0  0  0  0
 11 25  1  0  0  0  0
 12 13  1  0  0  0  0
 12 11  2  0  0  0  0
 13 26  1  0  0  0  0
 14  5  1  0  0  0  0
 14 29  1  0  0  0  0
 15  2  2  0  0  0  0
 16 15  1  0  0  0  0
 16 17  1  0  0  0  0
 17 30  1  0  0  0  0
 18 17  2  0  0  0  0
 18 31  1  0  0  0  0
 19 18  1  0  0  0  0
 20 21  1  0  0  0  0
 20 19  2  0  0  0  0
 21 16  2  0  0  0  0
 22  6  1  0  0  0  0
 22 36  1  0  0  0  0
 23  9  1  0  0  0  0
 27 14  1  0  0  0  0
 28 14  1  0  0  0  0
 32 20  1  0  0  0  0
 33 21  1  0  0  0  0
 34 22  1  0  0  0  0
 35 22  1  0  0  0  0
M  CHG  2   3  -1   4  -1
M  END
