1,2,4
 OpenBabel05122313063D

 40 40  0  0  1  0  0  0  0  0999 V2000
   -1.9952   -0.3370    0.7582 O   0  5  0  0  0  0  0  0  0  0  0  0
    1.4941   -1.2508   -0.3071 O   0  5  0  0  0  0  0  0  0  0  0  0
    3.0763    3.7932    1.0570 O   0  0  0  0  0  0  0  0  0  0  0  0
    0.0108    1.0757    0.2581 N   0  0  0  0  0  2  0  0  0  0  0  0
   -1.1236    1.8006    0.4780 N   0  0  0  0  0  0  0  0  0  0  0  0
   -4.4266    1.1521   -0.2531 N   0  3  0  0  0  0  0  0  0  0  0  0
    4.8301   -0.2058   -0.6971 N   0  0  0  0  0  0  0  0  0  0  0  0
   -2.1120    0.9406    0.7211 C   0  0  0  0  0  0  0  0  0  0  0  0
    1.1528    1.7134    0.1110 C   0  0  0  0  0  3  0  0  0  0  0  0
    1.1485    2.8066    0.2509 H   0  0  0  0  0  0  0  0  0  0  0  0
    2.3869    1.0345   -0.1670 C   0  0  0  0  0  0  0  0  0  0  0  0
    2.4584   -0.4107   -0.3499 C   0  0  0  0  0  0  0  0  0  0  0  0
    3.7383   -0.9976   -0.6159 C   0  0  1  0  0  3  0  0  0  0  0  0
    3.8448   -2.4704   -0.8016 C   0  0  0  0  0  0  0  0  0  0  0  0
    4.8946   -2.8236   -0.8142 H   0  0  0  0  0  0  0  0  0  0  0  0
    3.3440   -2.7698   -1.7470 H   0  0  0  0  0  0  0  0  0  0  0  0
    3.2708   -2.9808   -0.0016 H   0  0  0  0  0  0  0  0  0  0  0  0
    4.8022    1.1507   -0.5416 C   0  0  0  0  0  0  0  0  0  0  0  0
    5.7597    1.6792   -0.6298 H   0  0  0  0  0  0  0  0  0  0  0  0
    3.5970    1.7919   -0.2887 C   0  0  0  0  0  0  0  0  0  0  0  0
    3.6227    3.3018   -0.1547 C   0  0  0  0  0  0  0  0  0  0  0  0
    4.6729    3.6524   -0.3073 H   0  0  0  0  0  0  0  0  0  0  0  0
    3.0174    3.7576   -0.9685 H   0  0  0  0  0  0  0  0  0  0  0  0
   -3.4962    1.4846    0.9217 C   0  0  0  0  0  0  0  0  0  0  0  0
   -3.9604    1.0291    1.8177 H   0  0  0  0  0  0  0  0  0  0  0  0
   -3.4719    2.5854    1.0130 H   0  0  0  0  0  0  0  0  0  0  0  0
   -4.5679   -0.3442   -0.4404 C   0  0  0  0  0  0  0  0  0  0  0  0
   -4.8905   -0.7890    0.5171 H   0  0  0  0  0  0  0  0  0  0  0  0
   -3.5886   -0.7670   -0.7445 H   0  0  0  0  0  0  0  0  0  0  0  0
   -5.3322   -0.5033   -1.2232 H   0  0  0  0  0  0  0  0  0  0  0  0
   -3.8822    1.7559   -1.5209 C   0  0  0  0  0  0  0  0  0  0  0  0
   -3.6685    2.8251   -1.3440 H   0  0  0  0  0  0  0  0  0  0  0  0
   -4.6471    1.6372   -2.3096 H   0  0  0  0  0  0  0  0  0  0  0  0
   -2.9655    1.2007   -1.8079 H   0  0  0  0  0  0  0  0  0  0  0  0
   -5.7651    1.7449    0.0551 C   0  0  0  0  0  0  0  0  0  0  0  0
   -6.1478    1.3032    0.9928 H   0  0  0  0  0  0  0  0  0  0  0  0
   -6.4579    1.5179   -0.7748 H   0  0  0  0  0  0  0  0  0  0  0  0
   -5.6600    2.8391    0.1704 H   0  0  0  0  0  0  0  0  0  0  0  0
    5.7297   -0.6604   -0.8774 H   0  0  0  0  0  0  0  0  0  0  0  0
    3.3887    3.2134    1.7771 H   0  0  0  0  0  0  0  0  0  0  0  0
  3 40  1  0  0  0  0
  4  5  1  0  0  0  0
  5  8  2  0  0  0  0
  6 35  1  0  0  0  0
  6 24  1  0  0  0  0
  7 13  1  0  0  0  0
  7 18  1  0  0  0  0
  8  1  1  0  0  0  0
  8 24  1  0  0  0  0
  9 10  1  0  0  0  0
  9  4  1  0  0  0  0
 11  9  1  0  0  0  0
 12  2  1  0  0  0  0
 12 11  2  0  0  0  0
 13 14  1  6  0  0  0
 13 12  1  0  0  0  0
 14 17  1  0  0  0  0
 15 14  1  0  0  0  0
 16 14  1  0  0  0  0
 18 20  2  0  0  0  0
 19 18  1  0  0  0  0
 20 11  1  0  0  0  0
 20 21  1  0  0  0  0
 21  3  1  0  0  0  0
 22 21  1  0  0  0  0
 23 21  1  0  0  0  0
 24 26  1  0  0  0  0
 24 25  1  0  0  0  0
 27  6  1  0  0  0  0
 27 28  1  0  0  0  0
 29 27  1  0  0  0  0
 30 27  1  0  0  0  0
 31 32  1  0  0  0  0
 31  6  1  0  0  0  0
 33 31  1  0  0  0  0
 34 31  1  0  0  0  0
 35 38  1  0  0  0  0
 35 36  1  0  0  0  0
 37 35  1  0  0  0  0
 39  7  1  0  0  0  0
M  CHG  3   1  -1   2  -1   6   1
M  END
