4,7,12
 OpenBabel05122313063D

 79 87  0  0  1  0  0  0  0  0999 V2000
    2.6501    1.0187    0.3649 O   0  0  0  0  0  0  0  0  0  0  0  0
   -1.9184    3.1309   -1.7522 O   0  0  0  0  0  0  0  0  0  0  0  0
    1.8976    2.4985    1.9151 O   0  0  0  0  0  0  0  0  0  0  0  0
    1.9239   -3.0642    0.1213 O   0  0  0  0  0  1  0  0  0  0  0  0
   -3.3537    3.4818    0.5912 O   0  0  0  0  0  0  0  0  0  0  0  0
    3.1367    1.0232   -3.2011 O   0  0  0  0  0  0  0  0  0  0  0  0
   -0.0217   -1.6705   -1.0621 N   0  0  0  0  0  2  0  0  0  0  0  0
    0.2613    0.0844    1.2011 N   0  0  0  0  0  0  0  0  0  0  0  0
   -3.2210   -1.6443    2.3218 O   0  0  0  0  0  0  0  0  0  0  0  0
   -1.0666   -0.9710   -1.4474 N   0  0  0  0  0  0  0  0  0  0  0  0
   -0.8681   -0.3914    1.6789 N   0  0  0  0  0  0  0  0  0  0  0  0
   -2.2892   -2.7973   -0.6439 O   0  5  0  0  0  0  0  0  0  0  0  0
    0.2164    1.1015    0.3175 C   0  0  0  0  0  0  0  0  0  0  0  0
   -0.9198    2.8353   -1.1044 C   0  0  0  0  0  0  0  0  0  0  0  0
   -0.9592    1.8191    0.0101 C   0  0  0  0  0  0  0  0  0  0  0  0
    1.5077    1.3201   -0.4466 C   0  0  1  0  0  0  0  0  0  0  0  0
   -2.0399    0.2319    1.4407 C   0  0  0  0  0  0  0  0  0  0  0  0
    2.7439    1.7007    1.5538 C   0  0  0  0  0  0  0  0  0  0  0  0
    1.6022    2.7174   -1.0317 C   0  0  0  0  0  0  0  0  0  0  0  0
    0.4208    3.4035   -1.3959 C   0  0  0  0  0  0  0  0  0  0  0  0
    3.9819    1.3557    2.2984 C   0  0  0  0  0  0  0  0  0  0  0  0
   -2.1208    1.4447    0.7164 C   0  0  0  0  0  0  0  0  0  0  0  0
    3.9651   -0.6634   -1.7355 C   0  0  0  0  0  0  0  0  0  0  0  0
    3.6417   -1.7422   -0.8710 C   0  0  0  0  0  0  0  0  0  0  0  0
    1.2007   -1.1641   -1.0961 C   0  0  1  0  0  3  0  0  0  0  0  0
    1.5349    0.2054   -1.6088 C   0  0  2  0  0  0  0  0  0  0  0  0
    0.7725    0.5226   -2.3464 H   0  0  0  0  0  0  0  0  0  0  0  0
   -3.4958   -0.9184   -1.4713 C   0  0  0  0  0  0  0  0  0  0  0  0
    2.2284   -2.0562   -0.5475 C   0  0  1  0  0  3  0  0  0  0  0  0
   -3.3706    2.2757    0.8061 C   0  0  0  0  0  0  0  0  0  0  0  0
    2.8474    3.3084   -1.2988 C   0  0  0  0  0  0  0  0  0  0  0  0
    3.7704    2.7834   -1.0170 H   0  0  0  0  0  0  0  0  0  0  0  0
   -2.2441   -1.6622   -1.1768 C   0  0  0  0  0  0  0  0  0  0  0  0
    2.9126    0.2426   -2.2861 C   0  0  0  0  0  0  0  0  0  0  0  0
   -4.6029    1.5713    1.2698 C   0  0  0  0  0  0  0  0  0  0  0  0
   -4.5581    0.2573    1.7995 C   0  0  0  0  0  0  0  0  0  0  0  0
   -3.2775   -0.4868    1.9087 C   0  0  0  0  0  0  0  0  0  0  0  0
    0.4971    4.6484   -2.0539 C   0  0  0  0  0  0  0  0  0  0  0  0
   -0.4447    5.1410   -2.3365 H   0  0  0  0  0  0  0  0  0  0  0  0
    5.3088   -0.4293   -2.0832 C   0  0  0  0  0  0  0  0  0  0  0  0
    5.5279    0.4058   -2.7648 H   0  0  0  0  0  0  0  0  0  0  0  0
    4.6653   -2.5654   -0.3650 C   0  0  0  0  0  0  0  0  0  0  0  0
    4.3778   -3.4035    0.2865 H   0  0  0  0  0  0  0  0  0  0  0  0
   -3.4722    0.3717   -2.0434 C   0  0  0  0  0  0  0  0  0  0  0  0
   -2.5130    0.8114   -2.3398 H   0  0  0  0  0  0  0  0  0  0  0  0
    2.9148    4.5628   -1.9196 C   0  0  0  0  0  0  0  0  0  0  0  0
    3.8973    5.0195   -2.1108 H   0  0  0  0  0  0  0  0  0  0  0  0
    4.1735    1.9526    3.5619 C   0  0  0  0  0  0  0  0  0  0  0  0
    3.4020    2.6393    3.9395 H   0  0  0  0  0  0  0  0  0  0  0  0
    4.9519    0.4711    1.7828 C   0  0  0  0  0  0  0  0  0  0  0  0
    4.7987    0.0082    0.8005 H   0  0  0  0  0  0  0  0  0  0  0  0
   -5.7422   -0.3562    2.2540 C   0  0  0  0  0  0  0  0  0  0  0  0
   -5.6716   -1.3745    2.6632 H   0  0  0  0  0  0  0  0  0  0  0  0
    6.3229   -1.2412   -1.5600 C   0  0  0  0  0  0  0  0  0  0  0  0
    7.3731   -1.0462   -1.8245 H   0  0  0  0  0  0  0  0  0  0  0  0
   -5.8319    2.2546    1.2091 C   0  0  0  0  0  0  0  0  0  0  0  0
   -5.8334    3.2768    0.8033 H   0  0  0  0  0  0  0  0  0  0  0  0
    1.7406    5.2315   -2.3089 C   0  0  0  0  0  0  0  0  0  0  0  0
    1.8010    6.2105   -2.8067 H   0  0  0  0  0  0  0  0  0  0  0  0
   -4.7304   -1.4941   -1.1008 C   0  0  0  0  0  0  0  0  0  0  0  0
   -4.7225   -2.4972   -0.6505 H   0  0  0  0  0  0  0  0  0  0  0  0
   -6.9594    0.3265    2.1777 C   0  0  0  0  0  0  0  0  0  0  0  0
   -7.8833   -0.1563    2.5301 H   0  0  0  0  0  0  0  0  0  0  0  0
    6.0004   -2.3107   -0.7014 C   0  0  0  0  0  0  0  0  0  0  0  0
    6.7989   -2.9528   -0.2999 H   0  0  0  0  0  0  0  0  0  0  0  0
    6.1017    0.1867    2.5301 C   0  0  0  0  0  0  0  0  0  0  0  0
    6.8546   -0.5064    2.1256 H   0  0  0  0  0  0  0  0  0  0  0  0
   -7.0040    1.6339    1.6535 C   0  0  0  0  0  0  0  0  0  0  0  0
   -7.9637    2.1694    1.5957 H   0  0  0  0  0  0  0  0  0  0  0  0
    6.2887    0.7800    3.7896 C   0  0  0  0  0  0  0  0  0  0  0  0
    7.1922    0.5521    4.3756 H   0  0  0  0  0  0  0  0  0  0  0  0
   -5.9206   -0.7822   -1.2897 C   0  0  0  0  0  0  0  0  0  0  0  0
   -6.8806   -1.2300   -0.9923 H   0  0  0  0  0  0  0  0  0  0  0  0
    5.3237    1.6633    4.3044 C   0  0  0  0  0  0  0  0  0  0  0  0
    5.4710    2.1265    5.2915 H   0  0  0  0  0  0  0  0  0  0  0  0
   -5.8887    0.5115   -1.8405 C   0  0  0  0  0  0  0  0  0  0  0  0
   -6.8248    1.0757   -1.9704 H   0  0  0  0  0  0  0  0  0  0  0  0
   -4.6636    1.0868   -2.2178 C   0  0  0  0  0  0  0  0  0  0  0  0
   -4.6231    2.1033   -2.6355 H   0  0  0  0  0  0  0  0  0  0  0  0
  1 18  1  0  0  0  0
  2 14  2  0  0  0  0
  5 30  2  0  0  0  0
  6 34  2  0  0  0  0
  8 11  1  0  0  0  0
 10 33  2  0  0  0  0
 10  7  1  0  0  0  0
 13  8  2  0  0  0  0
 14 15  1  0  0  0  0
 15 13  1  0  0  0  0
 15 22  2  0  0  0  0
 16 13  1  0  0  0  0
 16  1  1  1  0  0  0
 17 11  2  0  0  0  0
 17 37  1  0  0  0  0
 18  3  2  0  0  0  0
 18 21  1  0  0  0  0
 19 16  1  0  0  0  0
 20 14  1  0  0  0  0
 20 19  2  0  0  0  0
 21 48  1  0  0  0  0
 22 30  1  0  0  0  0
 22 17  1  0  0  0  0
 23 24  1  0  0  0  0
 24 29  1  0  0  0  0
 24 42  2  0  0  0  0
 25  7  1  1  0  0  0
 25 29  1  0  0  0  0
 26 27  1  6  0  0  0
 26 25  1  0  0  0  0
 26 16  1  0  0  0  0
 28 33  1  0  0  0  0
 28 60  1  0  0  0  0
 29  4  1  6  0  0  0
 30 35  1  0  0  0  0
 31 19  1  0  0  0  0
 31 32  1  0  0  0  0
 33 12  1  0  0  0  0
 34 23  1  0  0  0  0
 34 26  1  0  0  0  0
 35 36  1  0  0  0  0
 36 37  1  0  0  0  0
 36 52  2  0  0  0  0
 37  9  2  0  0  0  0
 38 20  1  0  0  0  0
 39 38  1  0  0  0  0
 40 23  2  0  0  0  0
 40 54  1  0  0  0  0
 41 40  1  0  0  0  0
 42 43  1  0  0  0  0
 44 28  2  0  0  0  0
 45 44  1  0  0  0  0
 46 31  2  0  0  0  0
 47 46  1  0  0  0  0
 48 49  1  0  0  0  0
 48 74  2  0  0  0  0
 50 21  2  0  0  0  0
 50 66  1  0  0  0  0
 51 50  1  0  0  0  0
 52 53  1  0  0  0  0
 54 64  2  0  0  0  0
 55 54  1  0  0  0  0
 56 35  2  0  0  0  0
 56 68  1  0  0  0  0
 57 56  1  0  0  0  0
 58 38  2  0  0  0  0
 58 46  1  0  0  0  0
 59 58  1  0  0  0  0
 60 61  1  0  0  0  0
 62 52  1  0  0  0  0
 62 63  1  0  0  0  0
 64 42  1  0  0  0  0
 64 65  1  0  0  0  0
 66 70  2  0  0  0  0
 67 66  1  0  0  0  0
 68 62  2  0  0  0  0
 69 68  1  0  0  0  0
 70 74  1  0  0  0  0
 70 71  1  0  0  0  0
 72 60  2  0  0  0  0
 72 73  1  0  0  0  0
 74 75  1  0  0  0  0
 76 72  1  0  0  0  0
 77 76  1  0  0  0  0
 78 44  1  0  0  0  0
 78 76  2  0  0  0  0
 79 78  1  0  0  0  0
M  CHG  1  12  -1
M  END
