1,2,3
 OpenBabel05122313063D

 30 31  0  0  1  0  0  0  0  0999 V2000
    1.3771   -1.5068   -1.3764 O   0  5  0  0  0  0  0  0  0  0  0  0
   -1.5105   -2.5197    0.8680 O   0  0  0  0  0  1  0  0  0  0  0  0
    0.5451   -0.9899    1.1649 N   0  0  0  0  0  2  0  0  0  0  0  0
    2.7444   -0.4104    0.2963 C   0  0  0  0  0  0  0  0  0  0  0  0
    1.6969   -0.4042    1.2892 C   0  0  0  0  0  3  0  0  0  0  0  0
    1.8663    0.2169    2.1888 H   0  0  0  0  0  0  0  0  0  0  0  0
    4.3479    0.7731    1.8590 C   0  0  0  0  0  0  0  0  0  0  0  0
    3.6729    0.6187    2.7111 H   0  0  0  0  0  0  0  0  0  0  0  0
   -0.4941   -0.8081    2.1581 C   0  0  0  0  0  0  0  0  0  0  0  0
   -1.1723    0.0071    1.8159 H   0  0  0  0  0  0  0  0  0  0  0  0
   -0.0855   -0.5197    3.1523 H   0  0  0  0  0  0  0  0  0  0  0  0
    2.4882   -0.9115   -1.0168 C   0  0  0  0  0  0  0  0  0  0  0  0
    4.0017    0.2628    0.5744 C   0  0  0  0  0  0  0  0  0  0  0  0
    5.5400    1.4567    2.0733 C   0  0  0  0  0  0  0  0  0  0  0  0
    5.7732    1.8335    3.0808 H   0  0  0  0  0  0  0  0  0  0  0  0
    4.9489    0.4642   -0.4923 C   0  0  0  0  0  0  0  0  0  0  0  0
   -1.2963   -2.1197    2.2063 C   0  0  1  0  0  0  0  0  0  0  0  0
   -0.6662   -2.8925    2.7139 H   0  0  0  0  0  0  0  0  0  0  0  0
   -2.6311   -1.9806    2.9266 C   0  0  0  0  0  0  0  0  0  0  0  0
   -3.2604   -1.2168    2.4263 H   0  0  0  0  0  0  0  0  0  0  0  0
   -2.4828   -1.6866    3.9856 H   0  0  0  0  0  0  0  0  0  0  0  0
   -3.1748   -2.9443    2.9045 H   0  0  0  0  0  0  0  0  0  0  0  0
    4.6403   -0.0379   -1.7963 C   0  0  0  0  0  0  0  0  0  0  0  0
    5.3736    0.1143   -2.6043 H   0  0  0  0  0  0  0  0  0  0  0  0
    3.4624   -0.7015   -2.0516 C   0  0  0  0  0  0  0  0  0  0  0  0
    3.2174   -1.0936   -3.0489 H   0  0  0  0  0  0  0  0  0  0  0  0
    6.1631    1.1625   -0.2454 C   0  0  0  0  0  0  0  0  0  0  0  0
    6.8675    1.2987   -1.0810 H   0  0  0  0  0  0  0  0  0  0  0  0
    6.4594    1.6614    1.0159 C   0  0  0  0  0  0  0  0  0  0  0  0
    7.4013    2.2002    1.1969 H   0  0  0  0  0  0  0  0  0  0  0  0
  1 12  1  0  0  0  0
  2 17  1  0  0  0  0
  3  5  1  0  0  0  0
  3  9  1  0  0  0  0
  4 13  1  0  0  0  0
  4  5  1  0  0  0  0
  5  6  1  0  0  0  0
  7 14  1  0  0  0  0
  7  8  1  0  0  0  0
  9 17  1  0  0  0  0
  9 11  1  0  0  0  0
 10  9  1  0  0  0  0
 12  4  2  0  0  0  0
 13  7  2  0  0  0  0
 14 15  1  0  0  0  0
 16 27  2  0  0  0  0
 16 13  1  0  0  0  0
 17 18  1  1  0  0  0
 17 19  1  0  0  0  0
 19 21  1  0  0  0  0
 20 19  1  0  0  0  0
 22 19  1  0  0  0  0
 23 16  1  0  0  0  0
 24 23  1  0  0  0  0
 25 23  2  0  0  0  0
 25 12  1  0  0  0  0
 26 25  1  0  0  0  0
 27 29  1  0  0  0  0
 28 27  1  0  0  0  0
 29 30  1  0  0  0  0
 29 14  2  0  0  0  0
M  CHG  1   1  -1
M  END
