29,32,34
 OpenBabel05122313063D

 35 36  0  0  1  0  0  0  0  0999 V2000
   -0.0809   -2.6257   -1.1446 C   0  0  1  0  0  3  0  0  0  0  0  0
   -0.5212   -3.9241   -1.4247 C   0  0  0  0  0  0  0  0  0  0  0  0
    0.1702   -4.5941   -1.9552 H   0  0  0  0  0  0  0  0  0  0  0  0
   -1.8215   -4.2837   -1.0441 C   0  0  0  0  0  0  0  0  0  0  0  0
   -2.2139   -5.2874   -1.2662 H   0  0  0  0  0  0  0  0  0  0  0  0
   -2.6368   -3.3466   -0.3991 C   0  0  0  0  0  0  0  0  0  0  0  0
   -3.6805   -3.5533   -0.1319 H   0  0  0  0  0  0  0  0  0  0  0  0
   -2.1147   -2.0660   -0.1025 C   0  0  0  0  0  0  0  0  0  0  0  0
   -2.9418   -1.0183    0.4798 C   0  0  0  0  0  3  0  0  0  0  0  0
   -3.5530    1.0946    1.3869 C   0  0  0  0  0  0  0  0  0  0  0  0
   -4.7652    0.4760    0.6121 C   0  0  0  0  0  0  0  0  0  0  0  0
   -3.2262    2.5445    1.0400 C   0  0  0  0  0  0  0  0  0  0  0  0
   -2.2555    2.8098    1.5020 H   0  0  0  0  0  0  0  0  0  0  0  0
   -4.0026    3.2111    1.4638 H   0  0  0  0  0  0  0  0  0  0  0  0
   -3.1516    2.7271   -0.0461 H   0  0  0  0  0  0  0  0  0  0  0  0
   -3.6488    0.9300    2.9168 C   0  0  0  0  0  0  0  0  0  0  0  0
   -3.8763   -0.1155    3.2036 H   0  0  0  0  0  0  0  0  0  0  0  0
   -4.4283    1.5920    3.3399 H   0  0  0  0  0  0  0  0  0  0  0  0
   -2.6731    1.2049    3.3617 H   0  0  0  0  0  0  0  0  0  0  0  0
   -4.9395    1.0371   -0.8080 C   0  0  0  0  0  0  0  0  0  0  0  0
   -3.9776    1.0979   -1.3547 H   0  0  0  0  0  0  0  0  0  0  0  0
   -5.3805    2.0514   -0.7678 H   0  0  0  0  0  0  0  0  0  0  0  0
   -5.6312    0.3744   -1.3630 H   0  0  0  0  0  0  0  0  0  0  0  0
   -6.0902    0.4577    1.3628 C   0  0  0  0  0  0  0  0  0  0  0  0
   -6.8343   -0.0972    0.7616 H   0  0  0  0  0  0  0  0  0  0  0  0
   -6.4538    1.4933    1.5090 H   0  0  0  0  0  0  0  0  0  0  0  0
   -6.0138   -0.0361    2.3487 H   0  0  0  0  0  0  0  0  0  0  0  0
    1.2497   -2.0872   -1.6592 C   0  0  0  0  0  0  0  0  0  0  0  0
   -0.8399   -1.7460   -0.4627 N   0  0  0  0  0  2  0  0  0  0  0  0
   -2.4563    0.1739    0.9487 N   0  0  0  0  0  0  0  0  0  0  0  0
   -4.2922   -0.9674    0.4052 N   0  0  0  0  0  0  0  0  0  0  0  0
   -1.2093    0.3911    1.1999 O   0  0  0  0  0  1  0  0  0  0  0  0
   -5.0965   -1.8667    0.0387 O   0  0  0  0  0  1  0  0  0  0  0  0
    1.3748   -0.8025   -1.5389 O   0  5  0  0  0  0  0  0  0  0  0  0
    2.0881   -2.8612   -2.1326 O   0  0  0  0  0  0  0  0  0  0  0  0
  1 28  1  6  0  0  0
  1 29  1  0  0  0  0
  2  1  1  0  0  0  0
  2  4  2  0  0  0  0
  3  2  1  0  0  0  0
  4  6  1  0  0  0  0
  5  4  1  0  0  0  0
  6  7  1  0  0  0  0
  6  8  2  0  0  0  0
  8  9  1  0  0  0  0
  9 30  1  0  0  0  0
 10 16  1  0  0  0  0
 11 24  1  0  0  0  0
 11 10  1  0  0  0  0
 12 10  1  0  0  0  0
 12 14  1  0  0  0  0
 12 13  1  0  0  0  0
 15 12  1  0  0  0  0
 16 17  1  0  0  0  0
 16 18  1  0  0  0  0
 16 19  1  0  0  0  0
 20 22  1  0  0  0  0
 20 11  1  0  0  0  0
 21 20  1  0  0  0  0
 23 20  1  0  0  0  0
 24 26  1  0  0  0  0
 24 27  1  0  0  0  0
 25 24  1  0  0  0  0
 28 34  1  0  0  0  0
 29  8  1  0  0  0  0
 30 32  1  0  0  0  0
 30 10  1  0  0  0  0
 31  9  1  0  0  0  0
 31 11  1  0  0  0  0
 33 31  1  0  0  0  0
 35 28  2  0  0  0  0
M  CHG  1  34  -1
M  END
