1,7,13
 OpenBabel05122313063D

 49 50  0  0  1  0  0  0  0  0999 V2000
    1.8575    0.0910    1.0521 N   0  0  0  0  0  0  0  0  0  0  0  0
    2.1416    1.4635    1.5886 C   0  0  0  0  0  0  0  0  0  0  0  0
    2.1328    1.4590    2.6956 H   0  0  0  0  0  0  0  0  0  0  0  0
    1.3347    2.1509    1.2571 H   0  0  0  0  0  0  0  0  0  0  0  0
    3.4737    2.0816    1.1255 C   0  0  0  0  0  0  0  0  0  0  0  0
    3.9176    3.0715    1.6652 O   0  5  0  0  0  0  0  0  0  0  0  0
    4.0185    1.4765    0.0713 O   0  0  0  0  0  0  0  0  0  0  0  0
    2.1493   -0.9622    2.0687 C   0  0  0  0  0  0  0  0  0  0  0  0
    1.6442   -1.8980    1.7491 H   0  0  0  0  0  0  0  0  0  0  0  0
    1.7559   -0.6819    3.0656 H   0  0  0  0  0  0  0  0  0  0  0  0
    3.6571   -1.2771    2.1806 C   0  0  0  0  0  0  0  0  0  0  0  0
    4.1252   -1.7251    3.2091 O   0  5  0  0  0  0  0  0  0  0  0  0
    4.3211   -1.0711    1.0552 O   0  0  0  0  0  0  0  0  0  0  0  0
    0.4591   -0.0081    0.5477 C   0  0  0  0  0  0  0  0  0  0  0  0
    0.3341   -0.9886    0.0468 H   0  0  0  0  0  0  0  0  0  0  0  0
    0.3316    0.7846   -0.2134 H   0  0  0  0  0  0  0  0  0  0  0  0
   -0.6157    0.1660    1.6348 C   0  0  0  0  0  0  0  0  0  0  0  0
   -0.7795   -0.7690    2.1986 H   0  0  0  0  0  0  0  0  0  0  0  0
   -0.3328    0.9830    2.3248 H   0  0  0  0  0  0  0  0  0  0  0  0
   -1.8875    0.5435    1.0257 N   0  0  0  0  0  0  0  0  0  0  0  0
   -2.8247   -0.4717    0.8112 C   0  0  0  0  0  0  0  0  0  0  0  0
   -2.6249   -1.6442    1.1178 O   0  0  0  0  0  0  0  0  0  0  0  0
   -4.0218   -0.0384    0.2264 N   0  0  0  0  0  0  0  0  0  0  0  0
   -4.2436    1.2799   -0.1147 C   0  0  0  0  0  0  0  0  0  0  0  0
   -5.2060    1.4908   -0.6023 H   0  0  0  0  0  0  0  0  0  0  0  0
   -3.3193    2.2683    0.0757 C   0  0  0  0  0  0  0  0  0  0  0  0
   -3.5424    3.6964   -0.3201 C   0  0  0  0  0  0  0  0  0  0  0  0
   -3.4544    4.3669    0.5594 H   0  0  0  0  0  0  0  0  0  0  0  0
   -4.5394    3.8368   -0.7790 H   0  0  0  0  0  0  0  0  0  0  0  0
   -2.7660    4.0304   -1.0386 H   0  0  0  0  0  0  0  0  0  0  0  0
   -2.0319    1.9132    0.6664 C   0  0  0  0  0  0  0  0  0  0  0  0
   -1.1005    2.6979    0.8583 O   0  0  0  0  0  0  0  0  0  0  0  0
   -5.0562   -1.0750    0.0335 C   0  0  2  0  0  0  0  0  0  0  0  0
   -4.4818   -2.0167   -0.0830 H   0  0  0  0  0  0  0  0  0  0  0  0
   -5.8102   -0.8189   -1.1467 O   0  0  0  0  0  0  0  0  0  0  0  0
   -7.2319   -0.7728   -0.8440 C   0  0  2  0  0  0  0  0  0  0  0  0
   -7.7443   -1.3042   -1.6725 H   0  0  0  0  0  0  0  0  0  0  0  0
   -7.6834    0.6892   -0.7965 C   0  0  0  0  0  0  0  0  0  0  0  0
   -8.7929    0.7357   -0.8442 H   0  0  0  0  0  0  0  0  0  0  0  0
   -7.3822    1.1419    0.1820 H   0  0  0  0  0  0  0  0  0  0  0  0
   -7.1416    1.4262   -1.8761 O   0  0  0  0  0  0  0  0  0  0  0  0
   -6.3563    0.9204   -2.1713 H   0  0  0  0  0  0  0  0  0  0  0  0
   -7.3783   -1.5468    0.4762 C   0  0  1  0  0  0  0  0  0  0  0  0
   -8.2713   -1.2177    1.0460 H   0  0  0  0  0  0  0  0  0  0  0  0
   -7.5291   -2.9380    0.2831 O   0  0  0  0  0  0  0  0  0  0  0  0
   -6.7951   -3.2452   -0.2822 H   0  0  0  0  0  0  0  0  0  0  0  0
   -6.0687   -1.1651    1.1891 C   0  0  0  0  0  0  0  0  0  0  0  0
   -6.1604   -0.1785    1.6859 H   0  0  0  0  0  0  0  0  0  0  0  0
   -5.7765   -1.9119    1.9498 H   0  0  0  0  0  0  0  0  0  0  0  0
  1  2  1  0  0  0  0
  1  8  1  0  0  0  0
  2  3  1  0  0  0  0
  4  2  1  0  0  0  0
  5  2  1  0  0  0  0
  5  6  1  0  0  0  0
  7  5  2  0  0  0  0
  8 11  1  0  0  0  0
  8 10  1  0  0  0  0
  9  8  1  0  0  0  0
 11 12  1  0  0  0  0
 13 11  2  0  0  0  0
 14  1  1  0  0  0  0
 14 17  1  0  0  0  0
 15 14  1  0  0  0  0
 16 14  1  0  0  0  0
 17 18  1  0  0  0  0
 17 19  1  0  0  0  0
 20 17  1  0  0  0  0
 21 20  1  0  0  0  0
 21 22  2  0  0  0  0
 23 21  1  0  0  0  0
 24 26  2  0  0  0  0
 24 23  1  0  0  0  0
 25 24  1  0  0  0  0
 26 31  1  0  0  0  0
 27 26  1  0  0  0  0
 27 28  1  0  0  0  0
 29 27  1  0  0  0  0
 30 27  1  0  0  0  0
 31 32  2  0  0  0  0
 31 20  1  0  0  0  0
 33 34  1  6  0  0  0
 33 23  1  0  0  0  0
 33 47  1  0  0  0  0
 35 36  1  0  0  0  0
 35 33  1  0  0  0  0
 36 37  1  6  0  0  0
 36 38  1  0  0  0  0
 36 43  1  0  0  0  0
 38 40  1  0  0  0  0
 39 38  1  0  0  0  0
 41 38  1  0  0  0  0
 42 41  1  0  0  0  0
 43 44  1  1  0  0  0
 43 47  1  0  0  0  0
 45 43  1  0  0  0  0
 46 45  1  0  0  0  0
 47 48  1  0  0  0  0
 47 49  1  0  0  0  0
M  CHG  2   6  -1  12  -1
M  END
