1,20,22
 OpenBabel05122313063D

 41 44  0  0  0  0  0  0  0  0999 V2000
   -2.4426   -1.7983    0.1195 O   0  5  0  0  0  0  0  0  0  0  0  0
   -3.4262   -0.9076    0.0658 C   0  0  0  0  0  0  0  0  0  0  0  0
   -3.1967    0.4964    0.0085 C   0  0  0  0  0  0  0  0  0  0  0  0
   -4.3381    1.3990   -0.0223 C   0  0  0  0  0  0  0  0  0  0  0  0
   -4.2158    2.8145   -0.1132 C   0  0  0  0  0  0  0  0  0  0  0  0
   -3.2243    3.2829   -0.1778 H   0  0  0  0  0  0  0  0  0  0  0  0
   -5.3353    3.6393   -0.1383 C   0  0  0  0  0  0  0  0  0  0  0  0
   -5.2014    4.7291   -0.2101 H   0  0  0  0  0  0  0  0  0  0  0  0
   -6.6399    3.0927   -0.0791 C   0  0  0  0  0  0  0  0  0  0  0  0
   -7.5181    3.7547   -0.1008 H   0  0  0  0  0  0  0  0  0  0  0  0
   -6.7972    1.7167   -0.0002 C   0  0  0  0  0  0  0  0  0  0  0  0
   -7.8024    1.2691    0.0396 H   0  0  0  0  0  0  0  0  0  0  0  0
   -5.6693    0.8494    0.0277 C   0  0  0  0  0  0  0  0  0  0  0  0
   -5.8370   -0.5674    0.0988 C   0  0  0  0  0  0  0  0  0  0  0  0
   -6.8594   -0.9749    0.1363 H   0  0  0  0  0  0  0  0  0  0  0  0
   -4.7547   -1.4219    0.1176 C   0  0  0  0  0  0  0  0  0  0  0  0
   -4.8722   -2.5130    0.1720 H   0  0  0  0  0  0  0  0  0  0  0  0
   -1.8628    1.0253    0.0351 C   0  0  0  0  0  3  0  0  0  0  0  0
   -1.7196    2.1144    0.1421 H   0  0  0  0  0  0  0  0  0  0  0  0
   -0.7616    0.3092   -0.0453 N   0  0  0  0  0  2  0  0  0  0  0  0
    0.4310    0.9670    0.0600 N   0  0  0  0  0  0  0  0  0  0  0  0
    1.2795   -1.1388   -0.3500 O   0  5  0  0  0  0  0  0  0  0  0  0
    2.0641    2.9527    0.3710 O   0  0  0  0  0  0  0  0  0  0  0  0
    1.2024    2.4303    0.2908 H   0  0  0  0  0  0  0  0  0  0  0  0
    1.4610    0.1451   -0.1332 C   0  0  0  0  0  0  0  0  0  0  0  0
    2.8223    0.6752   -0.0761 C   0  0  0  0  0  0  0  0  0  0  0  0
    3.0651    2.0830    0.1801 C   0  0  0  0  0  0  0  0  0  0  0  0
    4.3846    2.5366    0.2320 C   0  0  0  0  0  0  0  0  0  0  0  0
    4.5546    3.6054    0.4275 H   0  0  0  0  0  0  0  0  0  0  0  0
    5.4841    1.6630    0.0396 C   0  0  0  0  0  0  0  0  0  0  0  0
    6.8378    2.1164    0.0907 C   0  0  0  0  0  0  0  0  0  0  0  0
    7.0309    3.1824    0.2867 H   0  0  0  0  0  0  0  0  0  0  0  0
    7.8902    1.2357   -0.1035 C   0  0  0  0  0  0  0  0  0  0  0  0
    8.9264    1.6051   -0.0610 H   0  0  0  0  0  0  0  0  0  0  0  0
    7.6490   -0.1447   -0.3592 C   0  0  0  0  0  0  0  0  0  0  0  0
    8.4972   -0.8284   -0.5123 H   0  0  0  0  0  0  0  0  0  0  0  0
    6.3496   -0.6199   -0.4156 C   0  0  0  0  0  0  0  0  0  0  0  0
    6.1485   -1.6842   -0.6141 H   0  0  0  0  0  0  0  0  0  0  0  0
    5.2409    0.2591   -0.2193 C   0  0  0  0  0  0  0  0  0  0  0  0
    3.9026   -0.1938   -0.2692 C   0  0  0  0  0  0  0  0  0  0  0  0
    3.6880   -1.2544   -0.4674 H   0  0  0  0  0  0  0  0  0  0  0  0
  2 16  1  0  0  0  0
  2  1  1  0  0  0  0
  3 18  1  0  0  0  0
  3  2  2  0  0  0  0
  4  3  1  0  0  0  0
  4 13  1  0  0  0  0
  5  4  2  0  0  0  0
  6  5  1  0  0  0  0
  7  5  1  0  0  0  0
  7  9  2  0  0  0  0
  8  7  1  0  0  0  0
  9 11  1  0  0  0  0
 10  9  1  0  0  0  0
 11 13  2  0  0  0  0
 11 12  1  0  0  0  0
 13 14  1  0  0  0  0
 14 16  2  0  0  0  0
 14 15  1  0  0  0  0
 16 17  1  0  0  0  0
 18 19  1  0  0  0  0
 20 18  1  0  0  0  0
 20 21  1  0  0  0  0
 22 25  1  0  0  0  0
 24 23  1  0  0  0  0
 25 26  1  0  0  0  0
 25 21  2  0  0  0  0
 26 27  1  0  0  0  0
 27 28  2  0  0  0  0
 27 23  1  0  0  0  0
 28 29  1  0  0  0  0
 30 31  1  0  0  0  0
 30 28  1  0  0  0  0
 31 32  1  0  0  0  0
 33 34  1  0  0  0  0
 33 31  2  0  0  0  0
 35 33  1  0  0  0  0
 36 35  1  0  0  0  0
 37 35  2  0  0  0  0
 37 39  1  0  0  0  0
 38 37  1  0  0  0  0
 39 30  2  0  0  0  0
 40 39  1  0  0  0  0
 40 26  2  0  0  0  0
 41 40  1  0  0  0  0
M  CHG  2   1  -1  22  -1
M  END
