1,3,4
 OpenBabel05122313063D

 31 32  0  0  0  0  0  0  0  0999 V2000
   -0.4727    0.8868   -0.1223 N   0  0  0  0  0  2  0  0  0  0  0  0
    0.8267    1.2851   -0.0371 N   0  0  0  0  0  0  0  0  0  0  0  0
   -2.6164   -0.8146    0.0441 O   0  5  0  0  0  0  0  0  0  0  0  0
    1.1647   -0.9918   -0.2309 O   0  5  0  0  0  0  0  0  0  0  0  0
   -2.8107    1.5899   -0.1480 C   0  0  0  0  0  0  0  0  0  0  0  0
   -3.3749    0.2751   -0.0843 C   0  0  0  0  0  0  0  0  0  0  0  0
   -4.7777    0.1199   -0.1151 C   0  0  0  0  0  0  0  0  0  0  0  0
   -5.1823   -0.9009   -0.0655 H   0  0  0  0  0  0  0  0  0  0  0  0
   -5.6130    1.2376   -0.2047 C   0  0  0  0  0  0  0  0  0  0  0  0
   -6.7041    1.0950   -0.2299 H   0  0  0  0  0  0  0  0  0  0  0  0
   -5.0717    2.5382   -0.2607 C   0  0  0  0  0  0  0  0  0  0  0  0
   -5.7332    3.4134   -0.3303 H   0  0  0  0  0  0  0  0  0  0  0  0
   -3.6878    2.7036   -0.2284 C   0  0  0  0  0  0  0  0  0  0  0  0
   -3.2481    3.7124   -0.2721 H   0  0  0  0  0  0  0  0  0  0  0  0
   -1.3900    1.8251   -0.1040 C   0  0  0  0  0  3  0  0  0  0  0  0
   -1.0289    2.8699   -0.0556 H   0  0  0  0  0  0  0  0  0  0  0  0
    1.6302    0.2405   -0.1203 C   0  0  0  0  0  0  0  0  0  0  0  0
    3.0897    0.4181   -0.0815 C   0  0  0  0  0  0  0  0  0  0  0  0
    3.6584    1.7067    0.0424 C   0  0  0  0  0  0  0  0  0  0  0  0
    2.9873    2.5747    0.1081 H   0  0  0  0  0  0  0  0  0  0  0  0
    5.0447    1.8595    0.0797 C   0  0  0  0  0  0  0  0  0  0  0  0
    5.4764    2.8684    0.1770 H   0  0  0  0  0  0  0  0  0  0  0  0
    5.9086    0.7430   -0.0069 C   0  0  0  0  0  0  0  0  0  0  0  0
    5.3295   -0.5362   -0.1314 C   0  0  0  0  0  0  0  0  0  0  0  0
    5.9841   -1.4190   -0.2011 H   0  0  0  0  0  0  0  0  0  0  0  0
    3.9403   -0.7032   -0.1683 C   0  0  0  0  0  0  0  0  0  0  0  0
    3.4930   -1.7025   -0.2659 H   0  0  0  0  0  0  0  0  0  0  0  0
    7.4030    0.9282    0.0303 C   0  0  0  0  0  0  0  0  0  0  0  0
    7.7491    1.5591   -0.8153 H   0  0  0  0  0  0  0  0  0  0  0  0
    7.9387   -0.0387   -0.0255 H   0  0  0  0  0  0  0  0  0  0  0  0
    7.7208    1.4428    0.9613 H   0  0  0  0  0  0  0  0  0  0  0  0
  1 15  1  0  0  0  0
  1  2  1  0  0  0  0
  4 17  1  0  0  0  0
  5 15  1  0  0  0  0
  5  6  1  0  0  0  0
  6  3  1  0  0  0  0
  7  6  2  0  0  0  0
  7  8  1  0  0  0  0
  9  7  1  0  0  0  0
 10  9  1  0  0  0  0
 11 13  1  0  0  0  0
 11  9  2  0  0  0  0
 12 11  1  0  0  0  0
 13  5  2  0  0  0  0
 14 13  1  0  0  0  0
 15 16  1  0  0  0  0
 17 18  1  0  0  0  0
 17  2  2  0  0  0  0
 18 19  1  0  0  0  0
 19 21  2  0  0  0  0
 19 20  1  0  0  0  0
 21 22  1  0  0  0  0
 23 28  1  0  0  0  0
 23 21  1  0  0  0  0
 24 23  2  0  0  0  0
 25 24  1  0  0  0  0
 26 24  1  0  0  0  0
 26 18  2  0  0  0  0
 27 26  1  0  0  0  0
 28 31  1  0  0  0  0
 29 28  1  0  0  0  0
 30 28  1  0  0  0  0
M  CHG  2   3  -1   4  -1
M  END
