2,3,4
 OpenBabel05122313063D

 35 36  0  0  1  0  0  0  0  0999 V2000
    6.4001    5.4284    0.0918 Cl  0  0  0  0  0  0  0  0  0  0  0  0
    1.1223    1.2692    0.5420 O   0  5  0  0  0  0  0  0  0  0  0  0
   -1.8483   -1.0932   -0.7997 O   0  5  0  0  0  0  0  0  0  0  0  0
   -0.2997    1.2369   -1.5314 N   0  0  0  0  0  2  0  0  0  0  0  0
    0.7930    2.0252   -1.6260 N   0  0  0  0  0  0  0  0  0  0  0  0
    1.4921    1.9835   -0.4771 C   0  0  0  0  0  0  0  0  0  0  0  0
   -1.2851    1.3932   -2.4596 C   0  0  1  0  0  3  0  0  0  0  0  0
   -1.1137    2.4545   -3.5077 C   0  0  0  0  0  0  0  0  0  0  0  0
   -2.4288    0.5768   -2.4323 C   0  0  0  0  0  0  0  0  0  0  0  0
   -2.6634   -0.6147   -1.6833 C   0  0  0  0  0  0  0  0  0  0  0  0
   -3.8847   -1.4290   -1.9133 C   0  0  0  0  0  0  0  0  0  0  0  0
   -4.2621   -2.3655   -0.9209 C   0  0  0  0  0  0  0  0  0  0  0  0
   -5.4120   -3.1469   -1.0775 C   0  0  0  0  0  0  0  0  0  0  0  0
   -6.2071   -3.0135   -2.2279 C   0  0  0  0  0  0  0  0  0  0  0  0
   -5.8397   -2.0929   -3.2233 C   0  0  0  0  0  0  0  0  0  0  0  0
   -4.6901   -1.3084   -3.0697 C   0  0  0  0  0  0  0  0  0  0  0  0
    2.6893    2.8355   -0.3478 C   0  0  0  0  0  0  0  0  0  0  0  0
    3.4492    2.7990    0.8416 C   0  0  0  0  0  0  0  0  0  0  0  0
    4.5891    3.5957    0.9835 C   0  0  0  0  0  0  0  0  0  0  0  0
    4.9773    4.4348   -0.0758 C   0  0  0  0  0  0  0  0  0  0  0  0
    4.2362    4.4828   -1.2706 C   0  0  0  0  0  0  0  0  0  0  0  0
    3.0961    3.6852   -1.4007 C   0  0  0  0  0  0  0  0  0  0  0  0
   -3.2018    0.8391   -3.1658 H   0  0  0  0  0  0  0  0  0  0  0  0
   -3.6363   -2.4535   -0.0217 H   0  0  0  0  0  0  0  0  0  0  0  0
   -5.6949   -3.8647   -0.2926 H   0  0  0  0  0  0  0  0  0  0  0  0
   -7.1120   -3.6278   -2.3507 H   0  0  0  0  0  0  0  0  0  0  0  0
   -6.4505   -1.9910   -4.1330 H   0  0  0  0  0  0  0  0  0  0  0  0
   -4.4060   -0.6138   -3.8730 H   0  0  0  0  0  0  0  0  0  0  0  0
    3.1288    2.1288    1.6519 H   0  0  0  0  0  0  0  0  0  0  0  0
    5.1862    3.5720    1.9057 H   0  0  0  0  0  0  0  0  0  0  0  0
    4.5600    5.1459   -2.0849 H   0  0  0  0  0  0  0  0  0  0  0  0
    2.4981    3.7057   -2.3224 H   0  0  0  0  0  0  0  0  0  0  0  0
   -1.9986    2.5116   -4.1671 H   0  0  0  0  0  0  0  0  0  0  0  0
   -0.2137    2.2459   -4.1214 H   0  0  0  0  0  0  0  0  0  0  0  0
   -0.9318    3.4400   -3.0337 H   0  0  0  0  0  0  0  0  0  0  0  0
  5  4  1  0  0  0  0
  5  6  2  0  0  0  0
  6 17  1  0  0  0  0
  6  2  1  0  0  0  0
  7  9  1  6  0  0  0
  7  4  1  0  0  0  0
  8 35  1  0  0  0  0
  8  7  1  0  0  0  0
  9 10  2  0  0  0  0
 10  3  1  0  0  0  0
 11 10  1  0  0  0  0
 11 12  1  0  0  0  0
 12 24  1  0  0  0  0
 13 12  2  0  0  0  0
 13 25  1  0  0  0  0
 14 13  1  0  0  0  0
 15 16  1  0  0  0  0
 15 14  2  0  0  0  0
 16 11  2  0  0  0  0
 17 18  1  0  0  0  0
 18 19  2  0  0  0  0
 18 29  1  0  0  0  0
 19 30  1  0  0  0  0
 20  1  1  0  0  0  0
 20 19  1  0  0  0  0
 21 20  2  0  0  0  0
 22 21  1  0  0  0  0
 22 17  2  0  0  0  0
 23  9  1  0  0  0  0
 26 14  1  0  0  0  0
 27 15  1  0  0  0  0
 28 16  1  0  0  0  0
 31 21  1  0  0  0  0
 32 22  1  0  0  0  0
 33  8  1  0  0  0  0
 34  8  1  0  0  0  0
M  CHG  2   2  -1   3  -1
M  END
