1,17,24
 OpenBabel05122313063D

 24 24  0  0  1  0  0  0  0  0999 V2000
    0.7433   -1.3484   -0.6003 O   0  5  0  0  0  0  0  0  0  0  0  0
    1.8162   -0.6570   -0.3137 C   0  0  0  0  0  0  0  0  0  0  0  0
    3.0723   -1.3296   -0.3385 C   0  0  0  0  0  0  0  0  0  0  0  0
    3.0493   -2.4024   -0.5771 H   0  0  0  0  0  0  0  0  0  0  0  0
    4.2601   -0.6654   -0.0553 C   0  0  0  0  0  0  0  0  0  0  0  0
    5.2113   -1.2201   -0.0669 H   0  0  0  0  0  0  0  0  0  0  0  0
    4.2501    0.7127    0.2551 C   0  0  0  0  0  0  0  0  0  0  0  0
    5.1851    1.2388    0.4957 H   0  0  0  0  0  0  0  0  0  0  0  0
    3.0417    1.4017    0.2571 C   0  0  0  0  0  0  0  0  0  0  0  0
    3.0535    2.4702    0.5155 H   0  0  0  0  0  0  0  0  0  0  0  0
    1.8020    0.7604   -0.0250 C   0  0  0  0  0  0  0  0  0  0  0  0
    0.5615    1.5230   -0.0576 C   0  0  1  0  0  3  0  0  0  0  0  0
    0.5726    3.0344   -0.0707 C   0  0  0  0  0  0  0  0  0  0  0  0
    0.1248    3.4505    0.8580 H   0  0  0  0  0  0  0  0  0  0  0  0
   -0.0083    3.4220   -0.9362 H   0  0  0  0  0  0  0  0  0  0  0  0
    1.5881    3.4478   -0.1690 H   0  0  0  0  0  0  0  0  0  0  0  0
   -0.5952    0.8910   -0.0850 N   0  0  0  0  0  2  0  0  0  0  0  0
   -1.7468    1.6251   -0.1135 N   0  0  0  0  0  0  0  0  0  0  0  0
   -1.7252    2.6472   -0.1730 H   0  0  0  0  0  0  0  0  0  0  0  0
   -2.9093    0.8972   -0.0980 C   0  0  1  0  0  3  0  0  0  0  0  0
   -4.0890    1.5717   -0.1093 N   0  0  0  0  0  0  0  0  0  0  0  0
   -4.9310    1.0060   -0.0051 H   0  0  0  0  0  0  0  0  0  0  0  0
   -4.1507    2.5684    0.0896 H   0  0  0  0  0  0  0  0  0  0  0  0
   -2.8605   -0.3517   -0.1051 O   0  0  0  0  0  1  0  0  0  0  0  0
  1  2  1  0  0  0  0
  2 11  1  0  0  0  0
  3  2  2  0  0  0  0
  3  5  1  0  0  0  0
  4  3  1  0  0  0  0
  5  7  2  0  0  0  0
  6  5  1  0  0  0  0
  7  9  1  0  0  0  0
  7  8  1  0  0  0  0
  9 10  1  0  0  0  0
 11  9  2  0  0  0  0
 12 17  1  6  0  0  0
 12 11  1  0  0  0  0
 13 12  1  0  0  0  0
 13 14  1  0  0  0  0
 15 13  1  0  0  0  0
 16 13  1  0  0  0  0
 18 20  1  0  0  0  0
 18 17  1  0  0  0  0
 19 18  1  0  0  0  0
 20 24  1  6  0  0  0
 21 20  1  0  0  0  0
 21 22  1  0  0  0  0
 21 23  1  0  0  0  0
M  CHG  1   1  -1
M  END
