1,2,3
 OpenBabel05122313063D

 40 41  0  0  0  0  0  0  0  0999 V2000
    0.7937   -0.4958   -0.3665 O   0  5  0  0  0  0  0  0  0  0  0  0
   -2.6660   -0.9063   -0.7620 O   0  5  0  0  0  0  0  0  0  0  0  0
   -1.2602    1.1086   -0.1304 N   0  0  0  0  0  2  0  0  0  0  0  0
    1.6124    0.5081   -0.1509 C   0  0  0  0  0  0  0  0  0  0  0  0
    3.0328    0.3342   -0.2617 C   0  0  0  0  0  0  0  0  0  0  0  0
    3.8300    1.4463    0.0313 C   0  0  0  0  0  0  0  0  0  0  0  0
    4.9227    1.3398   -0.0224 H   0  0  0  0  0  0  0  0  0  0  0  0
    3.3202    2.7261    0.3857 C   0  0  0  0  0  0  0  0  0  0  0  0
    1.9400    2.8923    0.4130 C   0  0  0  0  0  0  0  0  0  0  0  0
    1.5032    3.8789    0.6389 H   0  0  0  0  0  0  0  0  0  0  0  0
    1.0674    1.8024    0.1467 C   0  0  0  0  0  0  0  0  0  0  0  0
   -0.3440    2.0347    0.0428 C   0  0  0  0  0  3  0  0  0  0  0  0
   -0.6575    3.0981    0.0586 H   0  0  0  0  0  0  0  0  0  0  0  0
   -2.6056    1.4056   -0.3877 C   0  0  0  0  0  0  0  0  0  0  0  0
   -3.2449    2.6617   -0.3532 C   0  0  0  0  0  0  0  0  0  0  0  0
   -2.6876    3.5699   -0.0781 H   0  0  0  0  0  0  0  0  0  0  0  0
   -4.6077    2.7484   -0.6593 C   0  0  0  0  0  0  0  0  0  0  0  0
   -5.1136    3.7244   -0.6239 H   0  0  0  0  0  0  0  0  0  0  0  0
   -5.3345    1.5894   -1.0089 C   0  0  0  0  0  0  0  0  0  0  0  0
   -6.4051    1.6727   -1.2508 H   0  0  0  0  0  0  0  0  0  0  0  0
   -4.7157    0.3356   -1.0495 C   0  0  0  0  0  0  0  0  0  0  0  0
   -5.2661   -0.5764   -1.3211 H   0  0  0  0  0  0  0  0  0  0  0  0
   -3.3408    0.2326   -0.7389 C   0  0  0  0  0  0  0  0  0  0  0  0
    3.6283   -1.0098   -0.7210 C   0  0  0  0  0  0  0  0  0  0  0  0
    3.2402   -2.1473    0.2535 C   0  0  0  0  0  0  0  0  0  0  0  0
    3.5326   -1.8987    1.2948 H   0  0  0  0  0  0  0  0  0  0  0  0
    3.7686   -3.0795   -0.0334 H   0  0  0  0  0  0  0  0  0  0  0  0
    2.1557   -2.3545    0.2167 H   0  0  0  0  0  0  0  0  0  0  0  0
    3.0898   -1.3455   -2.1336 C   0  0  0  0  0  0  0  0  0  0  0  0
    3.5443   -2.2920   -2.4922 H   0  0  0  0  0  0  0  0  0  0  0  0
    3.3501   -0.5455   -2.8562 H   0  0  0  0  0  0  0  0  0  0  0  0
    1.9916   -1.4789   -2.1274 H   0  0  0  0  0  0  0  0  0  0  0  0
    5.1648   -0.9482   -0.7925 C   0  0  0  0  0  0  0  0  0  0  0  0
    5.6217   -0.7455    0.1978 H   0  0  0  0  0  0  0  0  0  0  0  0
    5.5189   -0.1750   -1.5042 H   0  0  0  0  0  0  0  0  0  0  0  0
    5.5541   -1.9244   -1.1437 H   0  0  0  0  0  0  0  0  0  0  0  0
    4.2697    3.8559    0.6933 C   0  0  0  0  0  0  0  0  0  0  0  0
    3.7292    4.8001    0.8984 H   0  0  0  0  0  0  0  0  0  0  0  0
    4.9673    4.0396   -0.1505 H   0  0  0  0  0  0  0  0  0  0  0  0
    4.8965    3.6259    1.5807 H   0  0  0  0  0  0  0  0  0  0  0  0
  1  4  1  0  0  0  0
  2 23  1  0  0  0  0
  3 12  1  0  0  0  0
  4 11  1  0  0  0  0
  5  4  2  0  0  0  0
  5  6  1  0  0  0  0
  6  8  2  0  0  0  0
  7  6  1  0  0  0  0
  8  9  1  0  0  0  0
  8 37  1  0  0  0  0
  9 10  1  0  0  0  0
 11  9  2  0  0  0  0
 12 13  1  0  0  0  0
 12 11  1  0  0  0  0
 14 15  1  0  0  0  0
 14  3  1  0  0  0  0
 15 16  1  0  0  0  0
 17 18  1  0  0  0  0
 17 15  2  0  0  0  0
 19 17  1  0  0  0  0
 20 19  1  0  0  0  0
 21 19  2  0  0  0  0
 21 23  1  0  0  0  0
 22 21  1  0  0  0  0
 23 14  2  0  0  0  0
 24  5  1  0  0  0  0
 24 25  1  0  0  0  0
 25 26  1  0  0  0  0
 27 25  1  0  0  0  0
 28 25  1  0  0  0  0
 29 32  1  0  0  0  0
 29 24  1  0  0  0  0
 30 29  1  0  0  0  0
 31 29  1  0  0  0  0
 33 24  1  0  0  0  0
 33 34  1  0  0  0  0
 35 33  1  0  0  0  0
 36 33  1  0  0  0  0
 37 38  1  0  0  0  0
 37 40  1  0  0  0  0
 39 37  1  0  0  0  0
M  CHG  2   1  -1   2  -1
M  END
