1,14,16
 OpenBabel05122313063D

 28 28  0  0  0  0  0  0  0  0999 V2000
   -1.6029    1.2615   -0.2550 O   0  5  0  0  0  0  0  0  0  0  0  0
   -2.5899    0.4560    0.0103 C   0  0  0  0  0  0  0  0  0  0  0  0
   -3.8731    1.0024    0.3209 C   0  0  0  0  0  0  0  0  0  0  0  0
   -3.9516    2.0996    0.3413 H   0  0  0  0  0  0  0  0  0  0  0  0
   -4.9733    0.1853    0.5773 C   0  0  0  0  0  0  0  0  0  0  0  0
   -5.9478    0.6462    0.8083 H   0  0  0  0  0  0  0  0  0  0  0  0
   -4.8523   -1.2228    0.5458 C   0  0  0  0  0  0  0  0  0  0  0  0
   -5.7223   -1.8647    0.7515 H   0  0  0  0  0  0  0  0  0  0  0  0
   -3.6093   -1.7845    0.2542 C   0  0  0  0  0  0  0  0  0  0  0  0
   -3.4882   -2.8807    0.2300 H   0  0  0  0  0  0  0  0  0  0  0  0
   -2.4694   -0.9834   -0.0140 C   0  0  0  0  0  0  0  0  0  0  0  0
   -1.2095   -1.6212   -0.2877 C   0  0  0  0  0  3  0  0  0  0  0  0
   -1.1583   -2.7292   -0.2537 H   0  0  0  0  0  0  0  0  0  0  0  0
   -0.0946   -0.9850   -0.5423 N   0  0  0  0  0  2  0  0  0  0  0  0
    1.0289   -1.7586   -0.6924 N   0  0  0  0  0  0  0  0  0  0  0  0
    1.9448    0.3124   -1.1506 O   0  5  0  0  0  0  0  0  0  0  0  0
    2.0578   -0.9616   -0.9522 C   0  0  0  0  0  0  0  0  0  0  0  0
    3.4569   -1.5187   -0.8741 C   0  0  0  0  0  0  0  0  0  0  0  0
    3.3911   -2.5968   -0.6243 H   0  0  0  0  0  0  0  0  0  0  0  0
    3.9565   -1.4252   -1.8630 H   0  0  0  0  0  0  0  0  0  0  0  0
    4.2472   -0.7193    0.1830 C   0  0  0  0  0  0  0  0  0  0  0  0
    5.2821   -1.1198    0.2512 H   0  0  0  0  0  0  0  0  0  0  0  0
    4.3253    0.3320   -0.1600 H   0  0  0  0  0  0  0  0  0  0  0  0
    3.3796    0.6402    2.0779 O   0  0  0  0  0  0  0  0  0  0  0  0
    2.5168    0.9838    1.7166 H   0  0  0  0  0  0  0  0  0  0  0  0
    3.5687   -0.6621    1.5857 C   0  0  0  0  0  0  0  0  0  0  0  0
    2.6054   -1.2281    1.5419 H   0  0  0  0  0  0  0  0  0  0  0  0
    4.2106   -1.2056    2.3183 H   0  0  0  0  0  0  0  0  0  0  0  0
  1  2  1  0  0  0  0
  2  3  1  0  0  0  0
  3  4  1  0  0  0  0
  3  5  2  0  0  0  0
  5  6  1  0  0  0  0
  7  5  1  0  0  0  0
  7  8  1  0  0  0  0
  9  7  2  0  0  0  0
 10  9  1  0  0  0  0
 11  2  2  0  0  0  0
 11  9  1  0  0  0  0
 12 13  1  0  0  0  0
 12 11  1  0  0  0  0
 14 12  1  0  0  0  0
 15 14  1  0  0  0  0
 16 17  1  0  0  0  0
 17 18  1  0  0  0  0
 17 15  2  0  0  0  0
 18 19  1  0  0  0  0
 18 21  1  0  0  0  0
 20 18  1  0  0  0  0
 21 22  1  0  0  0  0
 21 26  1  0  0  0  0
 23 21  1  0  0  0  0
 25 24  1  0  0  0  0
 26 24  1  0  0  0  0
 26 28  1  0  0  0  0
 27 26  1  0  0  0  0
M  CHG  2   1  -1  16  -1
M  END
