1,2,3
 OpenBabel05122313063D

 36 37  0  0  1  0  0  0  0  0999 V2000
    4.9552   -1.8452   -0.2560 N   0  0  0  0  0  2  0  0  0  0  0  0
    2.6384   -2.7804   -0.8311 O   0  5  0  0  0  0  0  0  0  0  0  0
    3.7299    0.6562   -0.1564 O   0  5  0  0  0  0  0  0  0  0  0  0
    5.2292    6.6570    1.2479 O   0  0  0  0  0  0  0  0  0  0  0  0
    3.6191   -3.6644   -0.9154 C   0  0  0  0  0  0  0  0  0  0  0  0
    4.9489   -3.2004   -0.6640 C   0  0  0  0  0  0  0  0  0  0  0  0
    6.0330   -4.0782   -0.8987 C   0  0  0  0  0  0  0  0  0  0  0  0
    7.0692   -3.7360   -0.8189 H   0  0  0  0  0  0  0  0  0  0  0  0
    5.7947   -5.4062   -1.2831 C   0  0  0  0  0  0  0  0  0  0  0  0
    6.6489   -6.0750   -1.4650 H   0  0  0  0  0  0  0  0  0  0  0  0
    4.4781   -5.8771   -1.4458 C   0  0  0  0  0  0  0  0  0  0  0  0
    4.3005   -6.9232   -1.7398 H   0  0  0  0  0  0  0  0  0  0  0  0
    3.3916   -5.0143   -1.2668 C   0  0  0  0  0  0  0  0  0  0  0  0
    2.3548   -5.3444   -1.4280 H   0  0  0  0  0  0  0  0  0  0  0  0
    5.9803   -1.1931    0.3208 C   0  0  2  0  0  3  0  0  0  0  0  0
    7.2297   -1.9109    0.7826 C   0  0  0  0  0  0  0  0  0  0  0  0
    6.9914   -2.9014    1.2155 H   0  0  0  0  0  0  0  0  0  0  0  0
    7.7445   -1.3006    1.5474 H   0  0  0  0  0  0  0  0  0  0  0  0
    7.9486   -2.0746   -0.0471 H   0  0  0  0  0  0  0  0  0  0  0  0
    5.9501    0.2025    0.5689 C   0  0  0  0  0  0  0  0  0  0  0  0
    6.8372    0.6310    1.0505 H   0  0  0  0  0  0  0  0  0  0  0  0
    4.8809    1.0639    0.2902 C   0  0  0  0  0  0  0  0  0  0  0  0
    4.9767    2.5247    0.5395 C   0  0  0  0  0  0  0  0  0  0  0  0
    6.2146    3.2072    0.6312 C   0  0  0  0  0  0  0  0  0  0  0  0
    7.1549    2.6552    0.4879 H   0  0  0  0  0  0  0  0  0  0  0  0
    6.2671    4.5796    0.8664 C   0  0  0  0  0  0  0  0  0  0  0  0
    7.2263    5.1137    0.9278 H   0  0  0  0  0  0  0  0  0  0  0  0
    5.0760    5.3243    1.0196 C   0  0  0  0  0  0  0  0  0  0  0  0
    3.8329    4.6636    0.9260 C   0  0  0  0  0  0  0  0  0  0  0  0
    2.8898    5.2137    1.0447 H   0  0  0  0  0  0  0  0  0  0  0  0
    3.7964    3.2841    0.6859 C   0  0  0  0  0  0  0  0  0  0  0  0
    2.8300    2.7643    0.6213 H   0  0  0  0  0  0  0  0  0  0  0  0
    4.0685    7.4506    1.4007 C   0  0  0  0  0  0  0  0  0  0  0  0
    3.4283    7.4308    0.4899 H   0  0  0  0  0  0  0  0  0  0  0  0
    4.4165    8.4862    1.5722 H   0  0  0  0  0  0  0  0  0  0  0  0
    3.4551    7.1270    2.2718 H   0  0  0  0  0  0  0  0  0  0  0  0
  3 22  1  0  0  0  0
  4 33  1  0  0  0  0
  5  2  1  0  0  0  0
  5  6  1  0  0  0  0
  6  1  1  0  0  0  0
  7  8  1  0  0  0  0
  7  6  2  0  0  0  0
  9  7  1  0  0  0  0
 10  9  1  0  0  0  0
 11  9  2  0  0  0  0
 11 13  1  0  0  0  0
 12 11  1  0  0  0  0
 13  5  2  0  0  0  0
 14 13  1  0  0  0  0
 15  1  1  1  0  0  0
 15 20  1  0  0  0  0
 15 16  1  0  0  0  0
 16 17  1  0  0  0  0
 16 18  1  0  0  0  0
 19 16  1  0  0  0  0
 20 21  1  0  0  0  0
 22 23  1  0  0  0  0
 22 20  2  0  0  0  0
 23 24  2  0  0  0  0
 23 31  1  0  0  0  0
 24 26  1  0  0  0  0
 25 24  1  0  0  0  0
 26 27  1  0  0  0  0
 26 28  2  0  0  0  0
 28  4  1  0  0  0  0
 29 28  1  0  0  0  0
 29 30  1  0  0  0  0
 31 29  2  0  0  0  0
 32 31  1  0  0  0  0
 33 35  1  0  0  0  0
 33 36  1  0  0  0  0
 34 33  1  0  0  0  0
M  CHG  2   2  -1   3  -1
M  END
