34,35,36
 OpenBabel05122313063D

 36 36  0  0  0  0  0  0  0  0999 V2000
   -1.1624    0.7467    0.0591 C   0  0  0  0  0  0  0  0  0  0  0  0
   -2.5802    0.5529   -0.0799 C   0  0  0  0  0  0  0  0  0  0  0  0
   -3.1735   -0.8669   -0.1259 C   0  0  0  0  0  0  0  0  0  0  0  0
   -2.5655   -1.6597   -1.3086 C   0  0  0  0  0  0  0  0  0  0  0  0
   -2.7698   -1.1461   -2.2704 H   0  0  0  0  0  0  0  0  0  0  0  0
   -3.0262   -2.6684   -1.3592 H   0  0  0  0  0  0  0  0  0  0  0  0
   -1.4721   -1.7838   -1.2028 H   0  0  0  0  0  0  0  0  0  0  0  0
   -2.8706   -1.5910    1.2081 C   0  0  0  0  0  0  0  0  0  0  0  0
   -3.2737   -2.6249    1.1790 H   0  0  0  0  0  0  0  0  0  0  0  0
   -3.3470   -1.0629    2.0592 H   0  0  0  0  0  0  0  0  0  0  0  0
   -1.7831   -1.6454    1.3973 H   0  0  0  0  0  0  0  0  0  0  0  0
   -4.7013   -0.8397   -0.3128 C   0  0  0  0  0  0  0  0  0  0  0  0
   -5.2157   -0.3151    0.5181 H   0  0  0  0  0  0  0  0  0  0  0  0
   -5.0862   -1.8789   -0.3365 H   0  0  0  0  0  0  0  0  0  0  0  0
   -4.9957   -0.3549   -1.2660 H   0  0  0  0  0  0  0  0  0  0  0  0
   -3.3787    1.7022   -0.1672 C   0  0  0  0  0  0  0  0  0  0  0  0
   -4.4648    1.5854   -0.2829 H   0  0  0  0  0  0  0  0  0  0  0  0
   -2.8568    3.0136   -0.1124 C   0  0  0  0  0  0  0  0  0  0  0  0
   -3.5346    3.8764   -0.1843 H   0  0  0  0  0  0  0  0  0  0  0  0
   -1.4886    3.1968    0.0374 C   0  0  0  0  0  0  0  0  0  0  0  0
   -1.0540    4.2078    0.0929 H   0  0  0  0  0  0  0  0  0  0  0  0
   -0.6273    2.0744    0.1203 C   0  0  0  0  0  0  0  0  0  0  0  0
    0.7849    2.2880    0.3098 C   0  0  0  0  0  3  0  0  0  0  0  0
    1.0951    3.3493    0.4450 H   0  0  0  0  0  0  0  0  0  0  0  0
    3.0804    1.7927    0.6056 C   0  0  0  0  0  0  0  0  0  0  0  0
    3.4373    1.2468    1.5073 H   0  0  0  0  0  0  0  0  0  0  0  0
    3.1161    2.8825    0.8328 H   0  0  0  0  0  0  0  0  0  0  0  0
    3.9979    1.4719   -0.5800 C   0  0  0  0  0  0  0  0  0  0  0  0
    3.6211    1.9936   -1.4854 H   0  0  0  0  0  0  0  0  0  0  0  0
    5.0151    1.8651   -0.3699 H   0  0  0  0  0  0  0  0  0  0  0  0
    4.0840   -0.0293   -0.8507 C   0  0  0  0  0  0  0  0  0  0  0  0
    4.7028   -0.2188   -1.7570 H   0  0  0  0  0  0  0  0  0  0  0  0
    4.5817   -0.5400    0.0093 H   0  0  0  0  0  0  0  0  0  0  0  0
    1.7058    1.3724    0.3560 N   0  0  0  0  0  2  0  0  0  0  0  0
   -0.3672   -0.2963    0.1407 O   0  5  0  0  0  0  0  0  0  0  0  0
    2.8113   -0.5827   -1.0637 O   0  0  0  0  0  1  0  0  0  0  0  0
  1 22  1  0  0  0  0
  1 35  1  0  0  0  0
  2  1  2  0  0  0  0
  3  2  1  0  0  0  0
  3  8  1  0  0  0  0
  4  7  1  0  0  0  0
  4  3  1  0  0  0  0
  5  4  1  0  0  0  0
  6  4  1  0  0  0  0
  8 11  1  0  0  0  0
  8 10  1  0  0  0  0
  9  8  1  0  0  0  0
 12  3  1  0  0  0  0
 12 13  1  0  0  0  0
 14 12  1  0  0  0  0
 15 12  1  0  0  0  0
 16 18  2  0  0  0  0
 16  2  1  0  0  0  0
 17 16  1  0  0  0  0
 18 20  1  0  0  0  0
 19 18  1  0  0  0  0
 20 21  1  0  0  0  0
 20 22  2  0  0  0  0
 22 23  1  0  0  0  0
 23 34  1  0  0  0  0
 23 24  1  0  0  0  0
 25 27  1  0  0  0  0
 25 26  1  0  0  0  0
 28 30  1  0  0  0  0
 28 25  1  0  0  0  0
 29 28  1  0  0  0  0
 31 28  1  0  0  0  0
 31 33  1  0  0  0  0
 32 31  1  0  0  0  0
 34 25  1  0  0  0  0
 36 31  1  0  0  0  0
M  CHG  1  35  -1
M  END
