1,2,8
 OpenBabel05122313063D

 26 26  0  0  0  0  0  0  0  0999 V2000
    0.1582   -1.4755   -0.3689 O   0  5  0  0  0  0  0  0  0  0  0  0
   -3.3038    0.1156   -0.0868 O   0  5  0  0  0  0  0  0  0  0  0  0
    2.6843    3.3373   -0.6005 O   0  0  0  0  0  0  0  0  0  0  0  0
    2.7696    2.7773   -1.3945 H   0  0  0  0  0  0  0  0  0  0  0  0
   -4.1883    2.2217   -0.1698 N   0  0  0  0  0  0  0  0  0  0  0  0
   -5.0535    1.8098    0.1799 H   0  0  0  0  0  0  0  0  0  0  0  0
   -3.9987    3.1831    0.1149 H   0  0  0  0  0  0  0  0  0  0  0  0
   -0.9370    0.9991   -0.0659 N   0  0  0  0  0  2  0  0  0  0  0  0
    3.7176   -1.2027    0.0557 N   0  0  0  0  0  0  0  0  0  0  0  0
   -1.8852    1.9646   -0.1146 N   0  0  0  0  0  0  0  0  0  0  0  0
    1.4510    0.5227    0.0462 C   0  0  0  0  0  0  0  0  0  0  0  0
    0.3121    1.4068   -0.0044 C   0  0  0  0  0  3  0  0  0  0  0  0
    0.4841    2.4987   -0.0143 H   0  0  0  0  0  0  0  0  0  0  0  0
    1.3018   -0.8905   -0.1481 C   0  0  0  0  0  0  0  0  0  0  0  0
    2.3302   -3.1812   -0.3492 C   0  0  0  0  0  0  0  0  0  0  0  0
    1.6518   -3.6171    0.4140 H   0  0  0  0  0  0  0  0  0  0  0  0
    3.3201   -3.6724   -0.3048 H   0  0  0  0  0  0  0  0  0  0  0  0
    1.8451   -3.3902   -1.3261 H   0  0  0  0  0  0  0  0  0  0  0  0
    2.4914   -1.7021   -0.1354 C   0  0  0  0  0  0  0  0  0  0  0  0
   -3.0921    1.3793   -0.1076 C   0  0  0  0  0  0  0  0  0  0  0  0
    2.7721    1.0287    0.2600 C   0  0  0  0  0  0  0  0  0  0  0  0
    3.8423    0.1251    0.2484 C   0  0  0  0  0  0  0  0  0  0  0  0
    4.8686    0.5058    0.4156 H   0  0  0  0  0  0  0  0  0  0  0  0
    3.0406    2.4931    0.4995 C   0  0  0  0  0  0  0  0  0  0  0  0
    2.4565    2.8625    1.3722 H   0  0  0  0  0  0  0  0  0  0  0  0
    4.1216    2.6150    0.7584 H   0  0  0  0  0  0  0  0  0  0  0  0
  1 14  1  0  0  0  0
  3 24  1  0  0  0  0
  4  3  1  0  0  0  0
  5 20  1  0  0  0  0
  5  7  1  0  0  0  0
  5  6  1  0  0  0  0
  8 12  1  0  0  0  0
  9 22  1  0  0  0  0
 10 20  2  0  0  0  0
 10  8  1  0  0  0  0
 11 21  1  0  0  0  0
 12 11  1  0  0  0  0
 13 12  1  0  0  0  0
 14 19  1  0  0  0  0
 14 11  2  0  0  0  0
 15 17  1  0  0  0  0
 15 19  1  0  0  0  0
 15 16  1  0  0  0  0
 18 15  1  0  0  0  0
 19  9  2  0  0  0  0
 20  2  1  0  0  0  0
 21 24  1  0  0  0  0
 22 21  2  0  0  0  0
 22 23  1  0  0  0  0
 24 26  1  0  0  0  0
 24 25  1  0  0  0  0
M  CHG  2   1  -1   2  -1
M  END
