2,4,34
 OpenBabel05122313063D

 34 35  0  0  1  0  0  0  0  0999 V2000
    8.2768   -0.1151   -0.0172 Br  0  0  0  0  0  0  0  0  0  0  0  0
    1.3869   -0.1813    0.0867 O   0  5  0  0  0  0  0  0  0  0  0  0
    1.7213    2.1247    0.1088 N   0  0  0  0  0  0  0  0  0  0  0  0
    0.3627    2.1711    0.1244 N   0  0  0  0  0  2  0  0  0  0  0  0
    2.1656    0.8769    0.0880 C   0  0  0  0  0  0  0  0  0  0  0  0
    3.6286    0.6468    0.0608 C   0  0  0  0  0  0  0  0  0  0  0  0
    6.3991    0.1924    0.0124 C   0  0  0  0  0  0  0  0  0  0  0  0
   -2.6429    2.4651    0.0748 C   0  0  1  0  0  3  0  0  0  0  0  0
   -4.4681    4.0771    0.0830 N   0  0  0  0  0  0  0  0  0  0  0  0
   -5.0613    1.7139   -0.0369 C   0  0  0  0  0  0  0  0  0  0  0  0
   -4.9698    1.0201    0.8241 H   0  0  0  0  0  0  0  0  0  0  0  0
   -4.9064    1.0897   -0.9421 H   0  0  0  0  0  0  0  0  0  0  0  0
   -6.0746    2.1533   -0.0587 H   0  0  0  0  0  0  0  0  0  0  0  0
   -4.0465    2.8189    0.0432 C   0  0  0  0  0  0  0  0  0  0  0  0
   -0.2517    3.3333    0.1272 C   0  0  0  0  0  0  0  0  0  0  0  0
    0.3972    4.2229    0.0721 H   0  0  0  0  0  0  0  0  0  0  0  0
    4.1380   -0.6634   -0.0590 C   0  0  0  0  0  0  0  0  0  0  0  0
    3.4339   -1.5031   -0.1412 H   0  0  0  0  0  0  0  0  0  0  0  0
   -1.6787    3.5299    0.1347 C   0  0  0  0  0  0  0  0  0  0  0  0
   -0.3744    6.1680   -0.7452 O   0  0  0  0  0  0  0  0  0  0  0  0
    0.2499    6.8888   -0.5445 H   0  0  0  0  0  0  0  0  0  0  0  0
   -2.1819    4.8747    0.1962 C   0  0  0  0  0  0  0  0  0  0  0  0
    5.5181   -0.8969   -0.0838 C   0  0  0  0  0  0  0  0  0  0  0  0
    5.9131   -1.9180   -0.1799 H   0  0  0  0  0  0  0  0  0  0  0  0
    5.9143    1.5070    0.1286 C   0  0  0  0  0  0  0  0  0  0  0  0
    6.6174    2.3487    0.2008 H   0  0  0  0  0  0  0  0  0  0  0  0
    4.5336    1.7274    0.1504 C   0  0  0  0  0  0  0  0  0  0  0  0
    4.1291    2.7454    0.2385 H   0  0  0  0  0  0  0  0  0  0  0  0
   -3.5591    5.0731    0.1617 C   0  0  0  0  0  0  0  0  0  0  0  0
   -3.9616    6.1012    0.2038 H   0  0  0  0  0  0  0  0  0  0  0  0
   -1.2716    6.0663    0.3594 C   0  0  0  0  0  0  0  0  0  0  0  0
   -1.9091    6.9771    0.4539 H   0  0  0  0  0  0  0  0  0  0  0  0
   -0.7102    5.9650    1.3226 H   0  0  0  0  0  0  0  0  0  0  0  0
   -2.3937    1.1753    0.0457 O   0  0  0  0  0  1  0  0  0  0  0  0
  1  7  1  0  0  0  0
  2  5  1  0  0  0  0
  3  4  1  0  0  0  0
  4 15  1  0  0  0  0
  5  3  2  0  0  0  0
  6  5  1  0  0  0  0
  6 27  1  0  0  0  0
  7 25  1  0  0  0  0
  8 34  1  1  0  0  0
  8 19  1  0  0  0  0
  9 29  1  0  0  0  0
 10 14  1  0  0  0  0
 10 11  1  0  0  0  0
 12 10  1  0  0  0  0
 13 10  1  0  0  0  0
 14  8  1  0  0  0  0
 14  9  2  0  0  0  0
 15 19  2  0  0  0  0
 16 15  1  0  0  0  0
 17  6  2  0  0  0  0
 18 17  1  0  0  0  0
 19 22  1  0  0  0  0
 20 21  1  0  0  0  0
 20 31  1  0  0  0  0
 22 31  1  0  0  0  0
 23 17  1  0  0  0  0
 23  7  2  0  0  0  0
 24 23  1  0  0  0  0
 25 27  2  0  0  0  0
 25 26  1  0  0  0  0
 27 28  1  0  0  0  0
 29 22  2  0  0  0  0
 29 30  1  0  0  0  0
 31 32  1  0  0  0  0
 31 33  1  0  0  0  0
M  CHG  1   2  -1
M  END
