2,14,17
 OpenBabel05122313063D

 20 20  0  0  0  0  0  0  0  0999 V2000
    1.9344   -1.0362   -1.1123 C   0  0  0  0  0  0  0  0  0  0  0  0
    0.7360   -0.4741   -1.2120 O   0  5  0  0  0  0  0  0  0  0  0  0
    2.7026   -1.1626   -2.3001 C   0  0  0  0  0  0  0  0  0  0  0  0
    2.2745   -0.7578   -3.2288 H   0  0  0  0  0  0  0  0  0  0  0  0
    3.9488   -1.7899   -2.2932 C   0  0  0  0  0  0  0  0  0  0  0  0
    4.5161   -1.8710   -3.2329 H   0  0  0  0  0  0  0  0  0  0  0  0
    4.4836   -2.3171   -1.0986 C   0  0  0  0  0  0  0  0  0  0  0  0
    5.4660   -2.8097   -1.0964 H   0  0  0  0  0  0  0  0  0  0  0  0
    3.7506   -2.2026    0.0787 C   0  0  0  0  0  0  0  0  0  0  0  0
    4.1536   -2.6058    1.0209 H   0  0  0  0  0  0  0  0  0  0  0  0
    2.4791   -1.5649    0.1102 C   0  0  0  0  0  0  0  0  0  0  0  0
    1.7926   -1.4811    1.3738 C   0  0  0  0  0  3  0  0  0  0  0  0
    2.2315   -1.9791    2.2565 H   0  0  0  0  0  0  0  0  0  0  0  0
    0.6699   -0.8352    1.5801 N   0  0  0  0  0  2  0  0  0  0  0  0
    0.1078   -0.8046    2.8175 N   0  0  0  0  0  0  0  0  0  0  0  0
   -0.9625   -0.0076    2.8139 C   0  0  0  0  0  0  0  0  0  0  0  0
   -1.3565    0.6601    1.7557 O   0  5  0  0  0  0  0  0  0  0  0  0
   -1.6820    0.1341    3.9565 N   0  0  0  0  0  0  0  0  0  0  0  0
   -1.3382   -0.2864    4.8176 H   0  0  0  0  0  0  0  0  0  0  0  0
   -2.4268    0.8256    3.9935 H   0  0  0  0  0  0  0  0  0  0  0  0
  1 11  1  0  0  0  0
  2  1  1  0  0  0  0
  3  5  1  0  0  0  0
  3  1  2  0  0  0  0
  4  3  1  0  0  0  0
  5  7  2  0  0  0  0
  6  5  1  0  0  0  0
  7  8  1  0  0  0  0
  7  9  1  0  0  0  0
  9 11  2  0  0  0  0
  9 10  1  0  0  0  0
 11 12  1  0  0  0  0
 12 14  1  0  0  0  0
 12 13  1  0  0  0  0
 14 15  1  0  0  0  0
 16 15  2  0  0  0  0
 16 18  1  0  0  0  0
 17 16  1  0  0  0  0
 18 20  1  0  0  0  0
 18 19  1  0  0  0  0
M  CHG  2   2  -1  17  -1
M  END
