1,2,5
 OpenBabel05122313063D

 32 33  0  0  1  0  0  0  0  0999 V2000
    2.6443   -1.2345   -0.5346 O   0  5  0  0  0  0  0  0  0  0  0  0
   -1.0872   -1.3282   -0.0457 O   0  5  0  0  0  0  0  0  0  0  0  0
   -7.0866    0.8372   -0.0249 O   0  0  0  0  0  0  0  0  0  0  0  0
   -7.5428   -0.0238    0.0085 H   0  0  0  0  0  0  0  0  0  0  0  0
    0.6365    0.5316   -0.0779 N   0  0  0  0  0  2  0  0  0  0  0  0
   -0.6625    0.9486   -0.0922 N   0  0  0  0  0  0  0  0  0  0  0  0
    3.4422   -0.2351   -0.2920 C   0  0  0  0  0  0  0  0  0  0  0  0
    4.8513   -0.4723   -0.3401 C   0  0  0  0  0  0  0  0  0  0  0  0
    5.1616   -1.5050   -0.5588 H   0  0  0  0  0  0  0  0  0  0  0  0
    5.7797    0.5402   -0.1128 C   0  0  0  0  0  0  0  0  0  0  0  0
    6.8579    0.3124   -0.1491 H   0  0  0  0  0  0  0  0  0  0  0  0
    5.3413    1.8518    0.1687 C   0  0  0  0  0  0  0  0  0  0  0  0
    6.0658    2.6586    0.3582 H   0  0  0  0  0  0  0  0  0  0  0  0
    3.9712    2.1158    0.2045 C   0  0  0  0  0  0  0  0  0  0  0  0
    3.6394    3.1412    0.4227 H   0  0  0  0  0  0  0  0  0  0  0  0
    2.9898    1.1113   -0.0182 C   0  0  0  0  0  0  0  0  0  0  0  0
    1.5738    1.4655   -0.0150 C   0  0  2  0  0  3  0  0  0  0  0  0
    1.1839    2.9231    0.0689 C   0  0  0  0  0  0  0  0  0  0  0  0
    0.0934    3.0080   -0.0753 H   0  0  0  0  0  0  0  0  0  0  0  0
    1.7186    3.5250   -0.6930 H   0  0  0  0  0  0  0  0  0  0  0  0
    1.4442    3.3446    1.0631 H   0  0  0  0  0  0  0  0  0  0  0  0
   -1.4800   -0.0995   -0.0589 C   0  0  0  0  0  0  0  0  0  0  0  0
   -2.9442    0.1595   -0.0493 C   0  0  0  0  0  0  0  0  0  0  0  0
   -3.4774    1.4670   -0.0826 C   0  0  0  0  0  0  0  0  0  0  0  0
   -2.7738    2.3111   -0.1143 H   0  0  0  0  0  0  0  0  0  0  0  0
   -4.8581    1.6827   -0.0749 C   0  0  0  0  0  0  0  0  0  0  0  0
   -5.2809    2.6982   -0.1005 H   0  0  0  0  0  0  0  0  0  0  0  0
   -5.7406    0.5839   -0.0319 C   0  0  0  0  0  0  0  0  0  0  0  0
   -5.2200   -0.7243    0.0024 C   0  0  0  0  0  0  0  0  0  0  0  0
   -5.9112   -1.5848    0.0367 H   0  0  0  0  0  0  0  0  0  0  0  0
   -3.8355   -0.9317   -0.0069 C   0  0  0  0  0  0  0  0  0  0  0  0
   -3.4056   -1.9435    0.0191 H   0  0  0  0  0  0  0  0  0  0  0  0
  1  7  1  0  0  0  0
  3  4  1  0  0  0  0
  6  5  1  0  0  0  0
  6 22  2  0  0  0  0
  7 16  1  0  0  0  0
  8  7  2  0  0  0  0
  8 10  1  0  0  0  0
  9  8  1  0  0  0  0
 10 12  2  0  0  0  0
 11 10  1  0  0  0  0
 12 14  1  0  0  0  0
 12 13  1  0  0  0  0
 14 15  1  0  0  0  0
 16 17  1  0  0  0  0
 16 14  2  0  0  0  0
 17  5  1  1  0  0  0
 17 18  1  0  0  0  0
 18 21  1  0  0  0  0
 19 18  1  0  0  0  0
 20 18  1  0  0  0  0
 22 23  1  0  0  0  0
 22  2  1  0  0  0  0
 23 31  1  0  0  0  0
 24 26  1  0  0  0  0
 24 23  2  0  0  0  0
 25 24  1  0  0  0  0
 26 28  2  0  0  0  0
 27 26  1  0  0  0  0
 28  3  1  0  0  0  0
 28 29  1  0  0  0  0
 29 30  1  0  0  0  0
 31 29  2  0  0  0  0
 31 32  1  0  0  0  0
M  CHG  2   1  -1   2  -1
M  END
