1,2,4
 OpenBabel05122313063D

 41 43  0  0  1  0  0  0  0  0999 V2000
   -1.1570   -1.4699   -0.1733 O   0  5  0  0  0  0  0  0  0  0  0  0
    2.5045   -0.4982    0.0601 O   0  5  0  0  0  0  0  0  0  0  0  0
   -1.3047    0.8181   -0.0989 N   0  0  0  0  0  0  0  0  0  0  0  0
    0.0503    0.6937   -0.1904 N   0  0  0  0  0  2  0  0  0  0  0  0
   -3.3579   -0.5456   -0.0870 C   0  0  0  0  0  0  0  0  0  0  0  0
   -3.8065   -1.8738   -0.1072 C   0  0  0  0  0  0  0  0  0  0  0  0
   -5.1799   -2.1992   -0.0842 C   0  0  0  0  0  0  0  0  0  0  0  0
   -6.1278   -1.1899   -0.0380 C   0  0  0  0  0  0  0  0  0  0  0  0
   -5.7323    0.1787   -0.0139 C   0  0  0  0  0  0  0  0  0  0  0  0
   -6.7165    1.2100    0.0335 C   0  0  0  0  0  0  0  0  0  0  0  0
   -6.3531    2.5465    0.0558 C   0  0  0  0  0  0  0  0  0  0  0  0
   -4.9792    2.8951    0.0317 C   0  0  0  0  0  0  0  0  0  0  0  0
   -3.9941    1.9170   -0.0137 C   0  0  0  0  0  0  0  0  0  0  0  0
   -4.3284    0.5303   -0.0386 C   0  0  0  0  0  0  0  0  0  0  0  0
   -1.8934   -0.3594   -0.1223 C   0  0  0  0  0  0  0  0  0  0  0  0
    0.0167    3.1404   -0.2767 C   0  0  0  0  0  0  0  0  0  0  0  0
    0.7506    1.8278   -0.2478 C   0  0  1  0  0  3  0  0  0  0  0  0
    2.1789    1.8270   -0.2820 C   0  0  0  0  0  0  0  0  0  0  0  0
    2.9968    0.7156   -0.1256 C   0  0  0  0  0  0  0  0  0  0  0  0
    4.4769    0.7836   -0.1148 C   0  0  0  0  0  0  0  0  0  0  0  0
    5.2148   -0.4237   -0.1136 C   0  0  0  0  0  0  0  0  0  0  0  0
    6.6146   -0.4048   -0.1070 C   0  0  0  0  0  0  0  0  0  0  0  0
    7.3051    0.8175   -0.0977 C   0  0  0  0  0  0  0  0  0  0  0  0
    6.5832    2.0236   -0.0935 C   0  0  0  0  0  0  0  0  0  0  0  0
    5.1845    2.0091   -0.1010 C   0  0  0  0  0  0  0  0  0  0  0  0
   -3.0526   -2.6716   -0.1437 H   0  0  0  0  0  0  0  0  0  0  0  0
   -5.4879   -3.2551   -0.1032 H   0  0  0  0  0  0  0  0  0  0  0  0
   -7.2029   -1.4279   -0.0194 H   0  0  0  0  0  0  0  0  0  0  0  0
   -7.7780    0.9174    0.0515 H   0  0  0  0  0  0  0  0  0  0  0  0
   -7.1230    3.3321    0.0918 H   0  0  0  0  0  0  0  0  0  0  0  0
   -4.6865    3.9564    0.0490 H   0  0  0  0  0  0  0  0  0  0  0  0
   -2.9323    2.1883   -0.0303 H   0  0  0  0  0  0  0  0  0  0  0  0
    2.6576    2.8040   -0.4122 H   0  0  0  0  0  0  0  0  0  0  0  0
    4.6662   -1.3756   -0.1263 H   0  0  0  0  0  0  0  0  0  0  0  0
    7.1719   -1.3536   -0.1123 H   0  0  0  0  0  0  0  0  0  0  0  0
    8.4055    0.8327   -0.0925 H   0  0  0  0  0  0  0  0  0  0  0  0
    7.1169    2.9858   -0.0803 H   0  0  0  0  0  0  0  0  0  0  0  0
    4.6408    2.9642   -0.0836 H   0  0  0  0  0  0  0  0  0  0  0  0
   -0.7026    3.1597   -1.1200 H   0  0  0  0  0  0  0  0  0  0  0  0
    0.7165    3.9906   -0.3649 H   0  0  0  0  0  0  0  0  0  0  0  0
   -0.5924    3.2588    0.6426 H   0  0  0  0  0  0  0  0  0  0  0  0
  1 15  1  0  0  0  0
  4  3  1  0  0  0  0
  5 14  1  0  0  0  0
  6  5  2  0  0  0  0
  6  7  1  0  0  0  0
  7  8  2  0  0  0  0
  8 28  1  0  0  0  0
  8  9  1  0  0  0  0
  9 10  1  0  0  0  0
 10 29  1  0  0  0  0
 10 11  2  0  0  0  0
 11 30  1  0  0  0  0
 12 31  1  0  0  0  0
 12 11  1  0  0  0  0
 13 12  2  0  0  0  0
 14  9  2  0  0  0  0
 14 13  1  0  0  0  0
 15  3  2  0  0  0  0
 15  5  1  0  0  0  0
 16 17  1  0  0  0  0
 16 41  1  0  0  0  0
 17 18  1  1  0  0  0
 17  4  1  0  0  0  0
 18 19  2  0  0  0  0
 19 20  1  0  0  0  0
 19  2  1  0  0  0  0
 20 21  2  0  0  0  0
 20 25  1  0  0  0  0
 21 22  1  0  0  0  0
 22 23  2  0  0  0  0
 23 24  1  0  0  0  0
 23 36  1  0  0  0  0
 24 37  1  0  0  0  0
 25 24  2  0  0  0  0
 25 38  1  0  0  0  0
 26  6  1  0  0  0  0
 27  7  1  0  0  0  0
 32 13  1  0  0  0  0
 33 18  1  0  0  0  0
 34 21  1  0  0  0  0
 35 22  1  0  0  0  0
 39 16  1  0  0  0  0
 40 16  1  0  0  0  0
M  CHG  2   1  -1   2  -1
M  END
