4,6,7
 OpenBabel05122313063D

 28 29  0  0  0  0  0  0  0  0999 V2000
    4.4512    2.0524    0.1265 Cl  0  0  0  0  0  0  0  0  0  0  0  0
    6.1039   -3.1235   -0.1144 Cl  0  0  0  0  0  0  0  0  0  0  0  0
   -7.5698   -2.2073    0.0787 F   0  0  0  0  0  0  0  0  0  0  0  0
    0.0130   -1.1418   -0.0230 N   0  0  0  0  0  2  0  0  0  0  0  0
   -1.2120   -1.7104    0.0881 N   0  0  0  0  0  0  0  0  0  0  0  0
    1.7706    0.8729    0.1750 O   0  5  0  0  0  0  0  0  0  0  0  0
   -1.8464    0.4606   -0.3611 O   0  5  0  0  0  0  0  0  0  0  0  0
    2.4258   -1.4421    0.0243 C   0  0  0  0  0  0  0  0  0  0  0  0
    2.7194   -0.0407    0.0694 C   0  0  0  0  0  0  0  0  0  0  0  0
    4.0858    0.3544    0.0572 C   0  0  0  0  0  0  0  0  0  0  0  0
    5.1216   -0.5834   -0.0009 C   0  0  0  0  0  0  0  0  0  0  0  0
    6.1661   -0.2458   -0.0142 H   0  0  0  0  0  0  0  0  0  0  0  0
    4.8088   -1.9561   -0.0417 C   0  0  0  0  0  0  0  0  0  0  0  0
    3.4820   -2.3857   -0.0218 C   0  0  0  0  0  0  0  0  0  0  0  0
    3.2518   -3.4601   -0.0496 H   0  0  0  0  0  0  0  0  0  0  0  0
    1.0635   -1.9165    0.0820 C   0  0  0  0  0  3  0  0  0  0  0  0
    0.8816   -2.9991    0.2177 H   0  0  0  0  0  0  0  0  0  0  0  0
   -2.1440   -0.7910   -0.1196 C   0  0  0  0  0  0  0  0  0  0  0  0
   -3.5684   -1.1714   -0.0681 C   0  0  0  0  0  0  0  0  0  0  0  0
   -4.5649   -0.1956   -0.2872 C   0  0  0  0  0  0  0  0  0  0  0  0
   -4.2562    0.8383   -0.4975 H   0  0  0  0  0  0  0  0  0  0  0  0
   -5.9200   -0.5400   -0.2392 C   0  0  0  0  0  0  0  0  0  0  0  0
   -6.7134    0.2019   -0.4077 H   0  0  0  0  0  0  0  0  0  0  0  0
   -6.2700   -1.8699    0.0305 C   0  0  0  0  0  0  0  0  0  0  0  0
   -5.3003   -2.8595    0.2515 C   0  0  0  0  0  0  0  0  0  0  0  0
   -5.6213   -3.8903    0.4585 H   0  0  0  0  0  0  0  0  0  0  0  0
   -3.9497   -2.5055    0.2005 C   0  0  0  0  0  0  0  0  0  0  0  0
   -3.1618   -3.2531    0.3676 H   0  0  0  0  0  0  0  0  0  0  0  0
  2 13  1  0  0  0  0
  4 16  1  0  0  0  0
  4  5  1  0  0  0  0
  7 18  1  0  0  0  0
  8  9  1  0  0  0  0
  8 16  1  0  0  0  0
  9  6  1  0  0  0  0
 10  9  2  0  0  0  0
 10  1  1  0  0  0  0
 11 10  1  0  0  0  0
 12 11  1  0  0  0  0
 13 14  1  0  0  0  0
 13 11  2  0  0  0  0
 14  8  2  0  0  0  0
 15 14  1  0  0  0  0
 16 17  1  0  0  0  0
 18 19  1  0  0  0  0
 18  5  2  0  0  0  0
 19 27  1  0  0  0  0
 20 22  1  0  0  0  0
 20 19  2  0  0  0  0
 21 20  1  0  0  0  0
 22 24  2  0  0  0  0
 23 22  1  0  0  0  0
 24  3  1  0  0  0  0
 24 25  1  0  0  0  0
 25 26  1  0  0  0  0
 27 25  2  0  0  0  0
 27 28  1  0  0  0  0
M  CHG  2   6  -1   7  -1
M  END
