1,3,5
 OpenBabel05122313063D

 44 46  0  0  1  0  0  0  0  0999 V2000
    0.0898    0.1226    0.7032 N   0  0  0  0  0  2  0  0  0  0  0  0
   -3.6151   -0.3799    1.1674 N   0  3  0  0  0  0  0  0  0  0  0  0
   -0.9131    1.9171   -0.8842 O   0  5  0  0  0  0  0  0  0  0  0  0
   -3.0074    1.7352   -0.1359 O   0  0  0  0  0  0  0  0  0  0  0  0
    2.6371    0.6264   -0.2917 O   0  5  0  0  0  0  0  0  0  0  0  0
   -0.6937   -3.1500    0.6181 O   0  0  0  0  0  0  0  0  0  0  0  0
   -1.7976    1.4400   -0.0768 C   0  0  0  0  0  0  0  0  0  0  0  0
   -1.3065    0.4351    1.0003 C   0  0  2  0  0  0  0  0  0  0  0  0
    0.7261   -0.7584    1.4231 C   0  0  0  0  0  3  0  0  0  0  0  0
    0.1949   -1.2802    2.2437 H   0  0  0  0  0  0  0  0  0  0  0  0
    2.1021   -1.1529    1.2588 C   0  0  0  0  0  0  0  0  0  0  0  0
    2.5821   -2.2591    2.0123 C   0  0  0  0  0  0  0  0  0  0  0  0
    1.8820   -2.7811    2.6838 H   0  0  0  0  0  0  0  0  0  0  0  0
    3.9023   -2.6854    1.9037 C   0  0  0  0  0  0  0  0  0  0  0  0
    4.2592   -3.5475    2.4845 H   0  0  0  0  0  0  0  0  0  0  0  0
    4.7830   -1.9921    1.0448 C   0  0  0  0  0  0  0  0  0  0  0  0
    5.8297   -2.3200    0.9555 H   0  0  0  0  0  0  0  0  0  0  0  0
    4.3489   -0.8877    0.3069 C   0  0  0  0  0  0  0  0  0  0  0  0
    5.0277   -0.3346   -0.3573 H   0  0  0  0  0  0  0  0  0  0  0  0
    3.0082   -0.4577    0.3966 C   0  0  0  0  0  0  0  0  0  0  0  0
   -1.4609    1.0389    2.4247 C   0  0  0  0  0  0  0  0  0  0  0  0
   -0.9914    0.3183    3.1282 H   0  0  0  0  0  0  0  0  0  0  0  0
   -0.8631    1.9704    2.4790 H   0  0  0  0  0  0  0  0  0  0  0  0
   -2.9159    1.2839    2.8432 C   0  0  0  0  0  0  0  0  0  0  0  0
   -2.9604    1.5324    3.9220 H   0  0  0  0  0  0  0  0  0  0  0  0
   -3.3315    2.1550    2.2990 H   0  0  0  0  0  0  0  0  0  0  0  0
   -3.7968    0.0611    2.5888 C   0  0  0  0  0  0  0  0  0  0  0  0
   -3.5262   -0.7934    3.2429 H   0  0  0  0  0  0  0  0  0  0  0  0
   -4.8696    0.2891    2.7386 H   0  0  0  0  0  0  0  0  0  0  0  0
   -2.2079   -0.8450    0.8751 C   0  0  2  0  0  0  0  0  0  0  0  0
   -1.9273   -1.5501    1.6831 H   0  0  0  0  0  0  0  0  0  0  0  0
   -2.1054   -1.5576   -0.4527 C   0  0  0  0  0  0  0  0  0  0  0  0
   -1.2918   -2.7154   -0.5321 C   0  0  0  0  0  0  0  0  0  0  0  0
   -1.1106   -3.3705   -1.7613 C   0  0  0  0  0  0  0  0  0  0  0  0
   -0.4671   -4.2638   -1.8091 H   0  0  0  0  0  0  0  0  0  0  0  0
   -1.7372   -2.8873   -2.9153 C   0  0  0  0  0  0  0  0  0  0  0  0
   -1.5807   -3.4049   -3.8730 H   0  0  0  0  0  0  0  0  0  0  0  0
   -2.5556   -1.7498   -2.8517 C   0  0  0  0  0  0  0  0  0  0  0  0
   -3.0479   -1.3654   -3.7557 H   0  0  0  0  0  0  0  0  0  0  0  0
   -2.7319   -1.0919   -1.6284 C   0  0  0  0  0  0  0  0  0  0  0  0
   -3.3579   -0.1879   -1.6039 H   0  0  0  0  0  0  0  0  0  0  0  0
   -3.7022    0.5170    0.5425 H   0  0  0  0  0  0  0  0  0  0  0  0
   -4.2918   -1.1052    0.8795 H   0  0  0  0  0  0  0  0  0  0  0  0
   -0.1629   -3.9450    0.4198 H   0  0  0  0  0  0  0  0  0  0  0  0
  1  8  1  0  0  0  0
  1  9  1  0  0  0  0
  2 27  1  0  0  0  0
  3  7  1  0  0  0  0
  4  7  2  0  0  0  0
  5 20  1  0  0  0  0
  8  7  1  6  0  0  0
  8 21  1  0  0  0  0
  9 10  1  0  0  0  0
 11  9  1  0  0  0  0
 11 12  1  0  0  0  0
 12 13  1  0  0  0  0
 14 12  2  0  0  0  0
 14 15  1  0  0  0  0
 16 14  1  0  0  0  0
 17 16  1  0  0  0  0
 18 20  1  0  0  0  0
 18 16  2  0  0  0  0
 19 18  1  0  0  0  0
 20 11  2  0  0  0  0
 21 23  1  0  0  0  0
 21 24  1  0  0  0  0
 21 22  1  0  0  0  0
 24 25  1  0  0  0  0
 26 24  1  0  0  0  0
 27 29  1  0  0  0  0
 27 24  1  0  0  0  0
 27 28  1  0  0  0  0
 30  8  1  0  0  0  0
 30  2  1  0  0  0  0
 30 31  1  1  0  0  0
 32 30  1  0  0  0  0
 33 32  1  0  0  0  0
 33  6  1  0  0  0  0
 34 33  2  0  0  0  0
 35 34  1  0  0  0  0
 36 38  2  0  0  0  0
 36 34  1  0  0  0  0
 37 36  1  0  0  0  0
 38 40  1  0  0  0  0
 39 38  1  0  0  0  0
 40 41  1  0  0  0  0
 40 32  2  0  0  0  0
 42  2  1  0  0  0  0
 43  2  1  0  0  0  0
 44  6  1  0  0  0  0
M  CHG  3   2   1   3  -1   5  -1
M  END
