3,4,5
 OpenBabel05122313063D

 38 40  0  0  0  0  0  0  0  0999 V2000
    6.4359   -1.1102   -0.1133 Br  0  0  0  0  0  0  0  0  0  0  0  0
   -7.7643   -2.6216   -0.0753 Cl  0  0  0  0  0  0  0  0  0  0  0  0
    1.3555    2.1723    0.0868 O   0  5  0  0  0  0  0  0  0  0  0  0
   -2.1703    1.1609   -0.0386 O   0  5  0  0  0  0  0  0  0  0  0  0
   -0.0691   -0.1546    0.0130 N   0  0  0  0  0  2  0  0  0  0  0  0
   -1.2011   -0.9247    0.0247 N   0  0  0  0  0  0  0  0  0  0  0  0
    2.4100    1.3915    0.0655 C   0  0  0  0  0  0  0  0  0  0  0  0
    2.3618   -0.0498    0.0250 C   0  0  0  0  0  0  0  0  0  0  0  0
    3.5921   -0.7703   -0.0369 C   0  0  0  0  0  3  0  0  0  0  0  0
    3.5660   -1.8656   -0.0989 H   0  0  0  0  0  0  0  0  0  0  0  0
    4.8137   -0.1106   -0.0286 C   0  0  0  0  0  0  0  0  0  0  0  0
    4.8711    1.3001    0.0386 C   0  0  0  0  0  0  0  0  0  0  0  0
    5.8430    1.8136    0.0507 H   0  0  0  0  0  0  0  0  0  0  0  0
    3.6875    2.0255    0.0823 C   0  0  0  0  0  0  0  0  0  0  0  0
    3.7015    3.1240    0.1318 H   0  0  0  0  0  0  0  0  0  0  0  0
    1.1106   -0.7764    0.0284 C   0  0  0  0  0  0  0  0  0  0  0  0
    1.1183   -2.2712    0.0521 C   0  0  0  0  0  0  0  0  0  0  0  0
    1.5641   -2.9567    1.1993 C   0  0  0  0  0  0  0  0  0  0  0  0
    1.8982   -2.3821    2.0763 H   0  0  0  0  0  0  0  0  0  0  0  0
    1.5781   -4.3596    1.2253 C   0  0  0  0  0  0  0  0  0  0  0  0
    1.9242   -4.8847    2.1285 H   0  0  0  0  0  0  0  0  0  0  0  0
    1.1550   -5.0887    0.1039 C   0  0  0  0  0  0  0  0  0  0  0  0
    1.1707   -6.1890    0.1224 H   0  0  0  0  0  0  0  0  0  0  0  0
    0.7124   -4.4095   -1.0437 C   0  0  0  0  0  0  0  0  0  0  0  0
    0.3803   -4.9765   -1.9267 H   0  0  0  0  0  0  0  0  0  0  0  0
    0.6879   -3.0091   -1.0689 C   0  0  0  0  0  0  0  0  0  0  0  0
    0.3298   -2.4747   -1.9606 H   0  0  0  0  0  0  0  0  0  0  0  0
   -2.2678   -0.1491   -0.0115 C   0  0  0  0  0  0  0  0  0  0  0  0
   -3.6113   -0.7594   -0.0268 C   0  0  0  0  0  0  0  0  0  0  0  0
   -3.7681   -2.1600    0.0757 C   0  0  0  0  0  0  0  0  0  0  0  0
   -2.8684   -2.7852    0.1677 H   0  0  0  0  0  0  0  0  0  0  0  0
   -5.0416   -2.7355    0.0619 C   0  0  0  0  0  0  0  0  0  0  0  0
   -5.1711   -3.8237    0.1437 H   0  0  0  0  0  0  0  0  0  0  0  0
   -6.1724   -1.9072   -0.0581 C   0  0  0  0  0  0  0  0  0  0  0  0
   -6.0373   -0.5128   -0.1656 C   0  0  0  0  0  0  0  0  0  0  0  0
   -6.9343    0.1146   -0.2632 H   0  0  0  0  0  0  0  0  0  0  0  0
   -4.7578    0.0534   -0.1495 C   0  0  0  0  0  0  0  0  0  0  0  0
   -4.6282    1.1411   -0.2406 H   0  0  0  0  0  0  0  0  0  0  0  0
  1 11  1  0  0  0  0
  2 34  1  0  0  0  0
  4 28  1  0  0  0  0
  5  6  1  0  0  0  0
  5 16  1  0  0  0  0
  7 14  2  0  0  0  0
  7  3  1  0  0  0  0
  8 16  2  0  0  0  0
  8  7  1  0  0  0  0
  9 11  1  0  0  0  0
  9  8  1  0  0  0  0
 10  9  1  0  0  0  0
 11 12  2  0  0  0  0
 12 13  1  0  0  0  0
 12 14  1  0  0  0  0
 14 15  1  0  0  0  0
 16 17  1  0  0  0  0
 17 18  1  0  0  0  0
 18 20  2  0  0  0  0
 18 19  1  0  0  0  0
 20 21  1  0  0  0  0
 22 23  1  0  0  0  0
 22 20  1  0  0  0  0
 24 22  2  0  0  0  0
 25 24  1  0  0  0  0
 26 24  1  0  0  0  0
 26 17  2  0  0  0  0
 27 26  1  0  0  0  0
 28  6  2  0  0  0  0
 29 28  1  0  0  0  0
 29 30  1  0  0  0  0
 30 31  1  0  0  0  0
 32 30  2  0  0  0  0
 32 33  1  0  0  0  0
 34 32  1  0  0  0  0
 35 37  1  0  0  0  0
 35 34  2  0  0  0  0
 36 35  1  0  0  0  0
 37 29  2  0  0  0  0
 38 37  1  0  0  0  0
M  CHG  2   3  -1   4  -1
M  END
