1,2,3
 OpenBabel05122313063D

 57 57  0  0  1  0  0  0  0  0999 V2000
   -3.6230    0.6631   -0.7081 O   0  0  0  0  0  1  0  0  0  0  0  0
   -0.1781    1.2158    0.2108 O   0  5  0  0  0  0  0  0  0  0  0  0
   -1.6993   -0.8326   -0.3621 N   0  0  0  0  0  2  0  0  0  0  0  0
   -3.8078   -0.5573   -1.3601 C   0  0  0  0  0  0  0  0  0  0  0  0
   -2.9351   -1.5846   -0.6140 C   0  0  2  0  0  0  0  0  0  0  0  0
   -0.5538   -1.4584   -0.4801 C   0  0  0  0  0  3  0  0  0  0  0  0
    0.7504   -0.9061   -0.2817 C   0  0  0  0  0  0  0  0  0  0  0  0
    1.8941   -1.7367   -0.4238 C   0  0  0  0  0  0  0  0  0  0  0  0
    3.1727   -1.2328   -0.2096 C   0  0  0  0  0  0  0  0  0  0  0  0
    3.2768    0.1385    0.1619 C   0  0  0  0  0  0  0  0  0  0  0  0
    2.1965    1.0109    0.3220 C   0  0  0  0  0  0  0  0  0  0  0  0
    0.8886    0.4690    0.0825 C   0  0  0  0  0  0  0  0  0  0  0  0
   -3.5817   -2.1942    0.6813 C   0  0  0  0  0  0  0  0  0  0  0  0
   -2.5380   -3.0679    1.4015 C   0  0  0  0  0  0  0  0  0  0  0  0
   -4.7486   -3.0971    0.2354 C   0  0  0  0  0  0  0  0  0  0  0  0
   -4.0993   -1.1220    1.6550 C   0  0  0  0  0  0  0  0  0  0  0  0
    4.4500   -2.0758   -0.3516 C   0  0  0  0  0  0  0  0  0  0  0  0
    4.1374   -3.5265   -0.7553 C   0  0  0  0  0  0  0  0  0  0  0  0
    5.3545   -1.4495   -1.4375 C   0  0  0  0  0  0  0  0  0  0  0  0
    5.2013   -2.0946    0.9993 C   0  0  0  0  0  0  0  0  0  0  0  0
    2.3722    2.4849    0.7196 C   0  0  0  0  0  0  0  0  0  0  0  0
    1.8337    3.3907   -0.4142 C   0  0  0  0  0  0  0  0  0  0  0  0
    3.8531    2.8367    0.9496 C   0  0  0  0  0  0  0  0  0  0  0  0
    1.6051    2.7654    2.0348 C   0  0  0  0  0  0  0  0  0  0  0  0
   -4.8846   -0.8341   -1.3470 H   0  0  0  0  0  0  0  0  0  0  0  0
   -3.4850   -0.5007   -2.4272 H   0  0  0  0  0  0  0  0  0  0  0  0
   -2.7063   -2.4465   -1.2816 H   0  0  0  0  0  0  0  0  0  0  0  0
   -0.5839   -2.5314   -0.7613 H   0  0  0  0  0  0  0  0  0  0  0  0
    1.7351   -2.7881   -0.7033 H   0  0  0  0  0  0  0  0  0  0  0  0
    4.2838    0.5407    0.3358 H   0  0  0  0  0  0  0  0  0  0  0  0
   -2.1269   -3.8561    0.7358 H   0  0  0  0  0  0  0  0  0  0  0  0
   -1.6935   -2.4671    1.7931 H   0  0  0  0  0  0  0  0  0  0  0  0
   -3.0081   -3.5784    2.2659 H   0  0  0  0  0  0  0  0  0  0  0  0
   -4.4083   -3.8903   -0.4629 H   0  0  0  0  0  0  0  0  0  0  0  0
   -5.2005   -3.5953    1.1165 H   0  0  0  0  0  0  0  0  0  0  0  0
   -5.5534   -2.5224   -0.2647 H   0  0  0  0  0  0  0  0  0  0  0  0
   -4.5547   -1.6136    2.5390 H   0  0  0  0  0  0  0  0  0  0  0  0
   -3.2868   -0.4621    2.0147 H   0  0  0  0  0  0  0  0  0  0  0  0
   -4.8648   -0.4717    1.1900 H   0  0  0  0  0  0  0  0  0  0  0  0
    3.6169   -3.5789   -1.7331 H   0  0  0  0  0  0  0  0  0  0  0  0
    5.0795   -4.1028   -0.8491 H   0  0  0  0  0  0  0  0  0  0  0  0
    3.5084   -4.0384    0.0010 H   0  0  0  0  0  0  0  0  0  0  0  0
    4.8385   -1.4270   -2.4185 H   0  0  0  0  0  0  0  0  0  0  0  0
    5.6436   -0.4099   -1.1848 H   0  0  0  0  0  0  0  0  0  0  0  0
    6.2879   -2.0386   -1.5510 H   0  0  0  0  0  0  0  0  0  0  0  0
    6.1330   -2.6913    0.9159 H   0  0  0  0  0  0  0  0  0  0  0  0
    5.4854   -1.0752    1.3282 H   0  0  0  0  0  0  0  0  0  0  0  0
    4.5738   -2.5434    1.7956 H   0  0  0  0  0  0  0  0  0  0  0  0
    0.7591    3.2197   -0.6139 H   0  0  0  0  0  0  0  0  0  0  0  0
    1.9640    4.4569   -0.1358 H   0  0  0  0  0  0  0  0  0  0  0  0
    2.3936    3.2141   -1.3554 H   0  0  0  0  0  0  0  0  0  0  0  0
    4.4638    2.6957    0.0344 H   0  0  0  0  0  0  0  0  0  0  0  0
    3.9344    3.9034    1.2386 H   0  0  0  0  0  0  0  0  0  0  0  0
    4.3038    2.2365    1.7664 H   0  0  0  0  0  0  0  0  0  0  0  0
    1.9902    2.1289    2.8577 H   0  0  0  0  0  0  0  0  0  0  0  0
    1.7451    3.8256    2.3300 H   0  0  0  0  0  0  0  0  0  0  0  0
    0.5208    2.5802    1.9259 H   0  0  0  0  0  0  0  0  0  0  0  0
  4 25  1  0  0  0  0
  4  1  1  0  0  0  0
  4  5  1  0  0  0  0
  5 27  1  6  0  0  0
  5  3  1  0  0  0  0
  5 13  1  0  0  0  0
  6  3  1  0  0  0  0
  6  7  1  0  0  0  0
  7 12  1  0  0  0  0
  8  7  2  0  0  0  0
  8  9  1  0  0  0  0
  9 10  2  0  0  0  0
 10 11  1  0  0  0  0
 10 30  1  0  0  0  0
 11 21  1  0  0  0  0
 12  2  1  0  0  0  0
 12 11  2  0  0  0  0
 13 14  1  0  0  0  0
 13 16  1  0  0  0  0
 14 32  1  0  0  0  0
 14 33  1  0  0  0  0
 15 13  1  0  0  0  0
 15 35  1  0  0  0  0
 16 38  1  0  0  0  0
 16 37  1  0  0  0  0
 17  9  1  0  0  0  0
 17 20  1  0  0  0  0
 18 17  1  0  0  0  0
 18 42  1  0  0  0  0
 19 44  1  0  0  0  0
 19 17  1  0  0  0  0
 20 47  1  0  0  0  0
 20 48  1  0  0  0  0
 21 23  1  0  0  0  0
 21 24  1  0  0  0  0
 22 50  1  0  0  0  0
 22 21  1  0  0  0  0
 23 53  1  0  0  0  0
 23 54  1  0  0  0  0
 24 56  1  0  0  0  0
 24 55  1  0  0  0  0
 26  4  1  0  0  0  0
 28  6  1  0  0  0  0
 29  8  1  0  0  0  0
 31 14  1  0  0  0  0
 34 15  1  0  0  0  0
 36 15  1  0  0  0  0
 39 16  1  0  0  0  0
 40 18  1  0  0  0  0
 41 18  1  0  0  0  0
 43 19  1  0  0  0  0
 45 19  1  0  0  0  0
 46 20  1  0  0  0  0
 49 22  1  0  0  0  0
 51 22  1  0  0  0  0
 52 23  1  0  0  0  0
 57 24  1  0  0  0  0
M  CHG  1   2  -1
M  END
