1,2,3
 OpenBabel05122313063D

 52 53  0  0  0  0  0  0  0  0999 V2000
   -1.7338    0.2458    0.2556 O   0  5  0  0  0  0  0  0  0  0  0  0
    1.8258    0.0659   -0.6304 O   0  5  0  0  0  0  0  0  0  0  0  0
   -0.1286   -1.9874   -0.4101 N   0  0  0  0  0  0  0  0  0  0  0  0
    0.4919   -0.5649    1.9987 O   0  0  0  0  0  0  0  0  0  0  0  0
   -2.7271   -0.6098    0.4803 C   0  0  0  0  0  0  0  0  0  0  0  0
   -3.8726   -0.1853    1.2082 C   0  0  0  0  0  0  0  0  0  0  0  0
   -4.8789   -1.1280    1.4635 C   0  0  0  0  0  0  0  0  0  0  0  0
   -5.7679   -0.8041    2.0302 H   0  0  0  0  0  0  0  0  0  0  0  0
   -4.7993   -2.4671    1.0202 C   0  0  0  0  0  0  0  0  0  0  0  0
   -3.6692   -2.8462    0.2748 C   0  0  0  0  0  0  0  0  0  0  0  0
   -3.5910   -3.8776   -0.1080 H   0  0  0  0  0  0  0  0  0  0  0  0
   -2.6382   -1.9336   -0.0135 C   0  0  0  0  0  0  0  0  0  0  0  0
   -1.4968   -2.2896   -0.9240 C   0  0  0  0  0  0  0  0  0  0  0  0
   -1.5594   -3.3717   -1.1899 H   0  0  0  0  0  0  0  0  0  0  0  0
   -1.5933   -1.7245   -1.8772 H   0  0  0  0  0  0  0  0  0  0  0  0
    0.1269   -2.6855    0.8707 C   0  0  0  0  0  0  0  0  0  0  0  0
    0.5722   -3.6920    0.6962 H   0  0  0  0  0  0  0  0  0  0  0  0
   -0.8545   -2.8434    1.3625 H   0  0  0  0  0  0  0  0  0  0  0  0
    1.0275   -1.8749    1.7989 C   0  0  0  0  0  0  0  0  0  0  0  0
    1.1383   -2.3998    2.7743 H   0  0  0  0  0  0  0  0  0  0  0  0
    2.0365   -1.7394    1.3692 H   0  0  0  0  0  0  0  0  0  0  0  0
    0.8262   -2.3980   -1.4793 C   0  0  0  0  0  0  0  0  0  0  0  0
    0.6455   -3.4700   -1.7320 H   0  0  0  0  0  0  0  0  0  0  0  0
    0.5491   -1.8064   -2.3797 H   0  0  0  0  0  0  0  0  0  0  0  0
   -0.4977   -0.4976    3.0212 C   0  0  0  0  0  0  0  0  0  0  0  0
   -0.0573   -0.7916    3.9996 H   0  0  0  0  0  0  0  0  0  0  0  0
   -1.3778   -1.1407    2.8031 H   0  0  0  0  0  0  0  0  0  0  0  0
   -0.8392    0.5512    3.0781 H   0  0  0  0  0  0  0  0  0  0  0  0
    2.2832   -2.1995   -1.1776 C   0  0  0  0  0  0  0  0  0  0  0  0
    3.2144   -3.2440   -1.3054 C   0  0  0  0  0  0  0  0  0  0  0  0
    2.8551   -4.2482   -1.5863 H   0  0  0  0  0  0  0  0  0  0  0  0
    4.5878   -3.0303   -1.0935 C   0  0  0  0  0  0  0  0  0  0  0  0
    5.0036   -1.7272   -0.7454 C   0  0  0  0  0  0  0  0  0  0  0  0
    6.0765   -1.5356   -0.5767 H   0  0  0  0  0  0  0  0  0  0  0  0
    4.1095   -0.6549   -0.5966 C   0  0  0  0  0  0  0  0  0  0  0  0
    2.7268   -0.9059   -0.8108 C   0  0  0  0  0  0  0  0  0  0  0  0
    4.5568    0.7246   -0.2122 C   0  0  0  0  0  0  0  0  0  0  0  0
    5.6572    0.7821   -0.1128 H   0  0  0  0  0  0  0  0  0  0  0  0
    4.0992    1.0466    0.7454 H   0  0  0  0  0  0  0  0  0  0  0  0
    4.2278    1.4763   -0.9579 H   0  0  0  0  0  0  0  0  0  0  0  0
    5.5927   -4.1450   -1.2466 C   0  0  0  0  0  0  0  0  0  0  0  0
    6.2655   -3.9685   -2.1129 H   0  0  0  0  0  0  0  0  0  0  0  0
    5.0974   -5.1229   -1.4043 H   0  0  0  0  0  0  0  0  0  0  0  0
    6.2432   -4.2342   -0.3517 H   0  0  0  0  0  0  0  0  0  0  0  0
   -3.9638    1.2519    1.6382 C   0  0  0  0  0  0  0  0  0  0  0  0
   -3.9302    1.9240    0.7542 H   0  0  0  0  0  0  0  0  0  0  0  0
   -3.1005    1.5408    2.2735 H   0  0  0  0  0  0  0  0  0  0  0  0
   -4.8961    1.4496    2.2005 H   0  0  0  0  0  0  0  0  0  0  0  0
   -5.9026   -3.4474    1.3335 C   0  0  0  0  0  0  0  0  0  0  0  0
   -6.0130   -3.6014    2.4279 H   0  0  0  0  0  0  0  0  0  0  0  0
   -5.7122   -4.4367    0.8737 H   0  0  0  0  0  0  0  0  0  0  0  0
   -6.8849   -3.0868    0.9625 H   0  0  0  0  0  0  0  0  0  0  0  0
  1  5  1  0  0  0  0
  3 16  1  0  0  0  0
  4 25  1  0  0  0  0
  5  6  1  0  0  0  0
  6  7  2  0  0  0  0
  6 45  1  0  0  0  0
  7  8  1  0  0  0  0
  9 49  1  0  0  0  0
  9  7  1  0  0  0  0
 10  9  2  0  0  0  0
 11 10  1  0  0  0  0
 12 10  1  0  0  0  0
 12  5  2  0  0  0  0
 13  3  1  0  0  0  0
 13 12  1  0  0  0  0
 14 13  1  0  0  0  0
 15 13  1  0  0  0  0
 16 18  1  0  0  0  0
 16 19  1  0  0  0  0
 17 16  1  0  0  0  0
 19  4  1  0  0  0  0
 19 20  1  0  0  0  0
 21 19  1  0  0  0  0
 22 29  1  0  0  0  0
 22  3  1  0  0  0  0
 23 22  1  0  0  0  0
 24 22  1  0  0  0  0
 25 28  1  0  0  0  0
 25 26  1  0  0  0  0
 27 25  1  0  0  0  0
 29 36  1  0  0  0  0
 30 29  2  0  0  0  0
 30 32  1  0  0  0  0
 31 30  1  0  0  0  0
 32 33  2  0  0  0  0
 33 35  1  0  0  0  0
 33 34  1  0  0  0  0
 35 37  1  0  0  0  0
 36  2  1  0  0  0  0
 36 35  2  0  0  0  0
 37 38  1  0  0  0  0
 37 39  1  0  0  0  0
 40 37  1  0  0  0  0
 41 32  1  0  0  0  0
 41 44  1  0  0  0  0
 42 41  1  0  0  0  0
 43 41  1  0  0  0  0
 45 48  1  0  0  0  0
 45 47  1  0  0  0  0
 46 45  1  0  0  0  0
 49 50  1  0  0  0  0
 51 49  1  0  0  0  0
 52 49  1  0  0  0  0
M  CHG  2   1  -1   2  -1
M  END
