1,2,3
 OpenBabel05122313063D

 40 41  0  0  0  0  0  0  0  0999 V2000
    1.6817    0.6996   -0.2374 O   0  5  0  0  0  0  0  0  0  0  0  0
   -2.0153    0.5357   -0.3539 O   0  5  0  0  0  0  0  0  0  0  0  0
   -0.1291   -1.4893    0.0719 N   0  0  0  0  0  0  0  0  0  0  0  0
    0.1989   -0.4477   -2.5869 O   0  0  0  0  0  0  0  0  0  0  0  0
    2.6345   -0.2098   -0.3304 C   0  0  0  0  0  0  0  0  0  0  0  0
    3.8750    0.0862   -0.9528 C   0  0  0  0  0  0  0  0  0  0  0  0
    4.8880   -0.8745   -1.0675 C   0  0  0  0  0  0  0  0  0  0  0  0
    5.8398   -0.6194   -1.5509 H   0  0  0  0  0  0  0  0  0  0  0  0
    4.6581   -2.1646   -0.5645 C   0  0  0  0  0  0  0  0  0  0  0  0
    3.4320   -2.4950    0.0355 C   0  0  0  0  0  0  0  0  0  0  0  0
    3.2683   -3.5158    0.4100 H   0  0  0  0  0  0  0  0  0  0  0  0
    2.4206   -1.5299    0.1509 C   0  0  0  0  0  0  0  0  0  0  0  0
    1.1127   -1.8485    0.8240 C   0  0  0  0  0  0  0  0  0  0  0  0
    1.0797   -2.9369    1.0616 H   0  0  0  0  0  0  0  0  0  0  0  0
    1.0639   -1.3036    1.7891 H   0  0  0  0  0  0  0  0  0  0  0  0
   -0.2772   -2.2883   -1.1692 C   0  0  0  0  0  0  0  0  0  0  0  0
   -1.3452   -2.2444   -1.4591 H   0  0  0  0  0  0  0  0  0  0  0  0
   -0.0349   -3.3578   -0.9643 H   0  0  0  0  0  0  0  0  0  0  0  0
    0.5457   -1.8003   -2.3416 C   0  0  0  0  0  0  0  0  0  0  0  0
    1.6394   -1.9025   -2.1676 H   0  0  0  0  0  0  0  0  0  0  0  0
    0.2931   -2.4321   -3.2281 H   0  0  0  0  0  0  0  0  0  0  0  0
    0.9184    0.0884   -3.6885 C   0  0  0  0  0  0  0  0  0  0  0  0
    1.9931    0.2413   -3.4379 H   0  0  0  0  0  0  0  0  0  0  0  0
    0.4667    1.0610   -3.9488 H   0  0  0  0  0  0  0  0  0  0  0  0
    0.8445   -0.5882   -4.5699 H   0  0  0  0  0  0  0  0  0  0  0  0
   -1.2710   -1.8086    0.9903 C   0  0  0  0  0  0  0  0  0  0  0  0
   -1.1641   -2.8610    1.3414 H   0  0  0  0  0  0  0  0  0  0  0  0
   -1.1401   -1.1645    1.8849 H   0  0  0  0  0  0  0  0  0  0  0  0
   -2.6424   -1.6277    0.3984 C   0  0  0  0  0  0  0  0  0  0  0  0
   -3.6232   -2.6263    0.5053 C   0  0  0  0  0  0  0  0  0  0  0  0
   -3.3917   -3.5804    1.0006 H   0  0  0  0  0  0  0  0  0  0  0  0
   -4.9068   -2.4097   -0.0194 C   0  0  0  0  0  0  0  0  0  0  0  0
   -5.2256   -1.2071   -0.6705 C   0  0  0  0  0  0  0  0  0  0  0  0
   -6.2265   -1.0433   -1.0903 H   0  0  0  0  0  0  0  0  0  0  0  0
   -4.2426   -0.2166   -0.7874 C   0  0  0  0  0  0  0  0  0  0  0  0
   -2.9410   -0.3985   -0.2487 C   0  0  0  0  0  0  0  0  0  0  0  0
    4.1081    1.6846   -1.6096 Cl  0  0  0  0  0  0  0  0  0  0  0  0
    5.9098   -3.3747   -0.6974 Cl  0  0  0  0  0  0  0  0  0  0  0  0
   -4.5990    1.2739   -1.6132 Cl  0  0  0  0  0  0  0  0  0  0  0  0
   -6.1221   -3.6548    0.1274 Cl  0  0  0  0  0  0  0  0  0  0  0  0
  2 36  1  0  0  0  0
  3 13  1  0  0  0  0
  3 26  1  0  0  0  0
  4 19  1  0  0  0  0
  5  1  1  0  0  0  0
  5 12  1  0  0  0  0
  6  5  2  0  0  0  0
  7  6  1  0  0  0  0
  7  9  2  0  0  0  0
  8  7  1  0  0  0  0
  9 10  1  0  0  0  0
 10 12  2  0  0  0  0
 10 11  1  0  0  0  0
 12 13  1  0  0  0  0
 13 14  1  0  0  0  0
 13 15  1  0  0  0  0
 16 18  1  0  0  0  0
 16  3  1  0  0  0  0
 17 16  1  0  0  0  0
 19 20  1  0  0  0  0
 19 16  1  0  0  0  0
 21 19  1  0  0  0  0
 22 23  1  0  0  0  0
 22  4  1  0  0  0  0
 24 22  1  0  0  0  0
 25 22  1  0  0  0  0
 26 27  1  0  0  0  0
 26 28  1  0  0  0  0
 29 30  1  0  0  0  0
 29 26  1  0  0  0  0
 30 31  1  0  0  0  0
 32 40  1  0  0  0  0
 32 30  2  0  0  0  0
 33 32  1  0  0  0  0
 34 33  1  0  0  0  0
 35 33  2  0  0  0  0
 35 36  1  0  0  0  0
 36 29  2  0  0  0  0
 37  6  1  0  0  0  0
 38  9  1  0  0  0  0
 39 35  1  0  0  0  0
M  CHG  2   1  -1   2  -1
M  END
