1,4,6
 OpenBabel05122313063D

 31 32  0  0  0  0  0  0  0  0999 V2000
   -0.2901    1.0155   -0.1162 N   0  0  0  0  0  2  0  0  0  0  0  0
   -1.6030    1.3764   -0.0294 N   0  0  0  0  0  0  0  0  0  0  0  0
   -6.6501    0.7013    0.0156 N   0  0  0  0  0  0  0  0  0  0  0  0
    1.8920   -0.6161    0.0414 O   0  5  0  0  0  0  0  0  0  0  0  0
    4.4903   -0.9069   -0.0073 O   0  0  0  0  0  0  0  0  0  0  0  0
   -1.8801   -0.9112   -0.2197 O   0  5  0  0  0  0  0  0  0  0  0  0
    2.0245    1.7936   -0.1436 C   0  0  0  0  0  0  0  0  0  0  0  0
    2.6098    0.4968   -0.0770 C   0  0  0  0  0  0  0  0  0  0  0  0
    4.0337    0.3653   -0.0905 C   0  0  0  0  0  0  0  0  0  0  0  0
    4.8346    1.5150   -0.1783 C   0  0  0  0  0  0  0  0  0  0  0  0
    5.9287    1.4214   -0.1937 H   0  0  0  0  0  0  0  0  0  0  0  0
    4.2480    2.7975   -0.2439 C   0  0  0  0  0  0  0  0  0  0  0  0
    4.8957    3.6833   -0.3127 H   0  0  0  0  0  0  0  0  0  0  0  0
    2.8657    2.9395   -0.2210 C   0  0  0  0  0  0  0  0  0  0  0  0
    2.4010    3.9355   -0.2700 H   0  0  0  0  0  0  0  0  0  0  0  0
    0.5969    1.9823   -0.1011 C   0  0  0  0  0  3  0  0  0  0  0  0
    0.2038    3.0155   -0.0539 H   0  0  0  0  0  0  0  0  0  0  0  0
   -2.3703    0.3085   -0.1103 C   0  0  0  0  0  0  0  0  0  0  0  0
   -3.8396    0.4515   -0.0681 C   0  0  0  0  0  0  0  0  0  0  0  0
   -4.6692   -0.6825   -0.1628 C   0  0  0  0  0  0  0  0  0  0  0  0
   -4.2239   -1.6814   -0.2715 H   0  0  0  0  0  0  0  0  0  0  0  0
   -6.0592   -0.4974   -0.1160 C   0  0  0  0  0  0  0  0  0  0  0  0
   -6.7325   -1.3703   -0.1893 H   0  0  0  0  0  0  0  0  0  0  0  0
   -5.8487    1.7777    0.1047 C   0  0  0  0  0  0  0  0  0  0  0  0
   -6.3526    2.7551    0.2116 H   0  0  0  0  0  0  0  0  0  0  0  0
   -4.4498    1.7151    0.0681 C   0  0  0  0  0  0  0  0  0  0  0  0
   -3.8276    2.6178    0.1427 H   0  0  0  0  0  0  0  0  0  0  0  0
    5.8892   -1.1203   -0.0426 C   0  0  0  0  0  0  0  0  0  0  0  0
    6.3390   -0.7496   -0.9908 H   0  0  0  0  0  0  0  0  0  0  0  0
    6.0385   -2.2134    0.0238 H   0  0  0  0  0  0  0  0  0  0  0  0
    6.4047   -0.6301    0.8140 H   0  0  0  0  0  0  0  0  0  0  0  0
  1 16  1  0  0  0  0
  1  2  1  0  0  0  0
  3 24  1  0  0  0  0
  6 18  1  0  0  0  0
  7 16  1  0  0  0  0
  7  8  1  0  0  0  0
  8  4  1  0  0  0  0
  9  8  2  0  0  0  0
  9  5  1  0  0  0  0
 10  9  1  0  0  0  0
 11 10  1  0  0  0  0
 12 14  1  0  0  0  0
 12 10  2  0  0  0  0
 13 12  1  0  0  0  0
 14  7  2  0  0  0  0
 15 14  1  0  0  0  0
 16 17  1  0  0  0  0
 18 19  1  0  0  0  0
 18  2  2  0  0  0  0
 19 26  1  0  0  0  0
 20 22  1  0  0  0  0
 20 19  2  0  0  0  0
 21 20  1  0  0  0  0
 22  3  2  0  0  0  0
 23 22  1  0  0  0  0
 24 25  1  0  0  0  0
 26 24  2  0  0  0  0
 26 27  1  0  0  0  0
 28  5  1  0  0  0  0
 28 30  1  0  0  0  0
 28 31  1  0  0  0  0
 29 28  1  0  0  0  0
M  CHG  2   4  -1   6  -1
M  END
