1,3,4
 OpenBabel05122313063D

 38 38  0  0  1  0  0  0  0  0999 V2000
    1.7558    1.3311    0.0529 N   0  0  0  0  0  2  0  0  0  0  0  0
   -4.6273   -0.0979    0.3807 N   0  0  0  0  0  0  0  0  0  0  0  0
    0.0940   -0.8369    0.2066 O   0  5  0  0  0  0  0  0  0  0  0  0
    3.7650   -0.1716   -0.4566 O   0  0  0  0  0  1  0  0  0  0  0  0
   -0.6718    1.4522    0.1691 C   0  0  0  0  0  0  0  0  0  0  0  0
   -0.9017    0.0334    0.2046 C   0  0  0  0  0  0  0  0  0  0  0  0
   -2.2174   -0.4585    0.2745 C   0  0  0  0  0  0  0  0  0  0  0  0
   -2.3178   -1.5495    0.2885 H   0  0  0  0  0  0  0  0  0  0  0  0
   -3.3445    0.4030    0.3026 C   0  0  0  0  0  0  0  0  0  0  0  0
   -3.1024    1.8182    0.2631 C   0  0  0  0  0  0  0  0  0  0  0  0
   -3.9354    2.5301    0.2747 H   0  0  0  0  0  0  0  0  0  0  0  0
   -1.8072    2.3040    0.2088 C   0  0  0  0  0  0  0  0  0  0  0  0
   -1.6441    3.3937    0.1870 H   0  0  0  0  0  0  0  0  0  0  0  0
    0.6450    2.0102    0.1547 C   0  0  0  0  0  3  0  0  0  0  0  0
    0.7096    3.1158    0.2569 H   0  0  0  0  0  0  0  0  0  0  0  0
    3.0473    1.9907    0.1419 C   0  0  0  0  0  0  0  0  0  0  0  0
    3.4128    1.9232    1.1919 H   0  0  0  0  0  0  0  0  0  0  0  0
    2.9914    3.0648   -0.1437 H   0  0  0  0  0  0  0  0  0  0  0  0
    4.0096    1.1898   -0.7479 C   0  0  1  0  0  0  0  0  0  0  0  0
    3.7423    1.3849   -1.8171 H   0  0  0  0  0  0  0  0  0  0  0  0
    5.4768    1.5206   -0.5144 C   0  0  0  0  0  0  0  0  0  0  0  0
    5.7508    1.3315    0.5432 H   0  0  0  0  0  0  0  0  0  0  0  0
    5.6883    2.5820   -0.7559 H   0  0  0  0  0  0  0  0  0  0  0  0
    6.1140    0.8825   -1.1560 H   0  0  0  0  0  0  0  0  0  0  0  0
   -5.7885    0.7862    0.3261 C   0  0  0  0  0  0  0  0  0  0  0  0
   -5.6089    1.6597    0.9878 H   0  0  0  0  0  0  0  0  0  0  0  0
   -6.6369    0.2368    0.7825 H   0  0  0  0  0  0  0  0  0  0  0  0
   -6.1728    1.2604   -1.0798 C   0  0  0  0  0  0  0  0  0  0  0  0
   -5.3334    1.7966   -1.5654 H   0  0  0  0  0  0  0  0  0  0  0  0
   -7.0395    1.9506   -1.0318 H   0  0  0  0  0  0  0  0  0  0  0  0
   -6.4505    0.4091   -1.7318 H   0  0  0  0  0  0  0  0  0  0  0  0
   -4.8692   -1.5390    0.3636 C   0  0  0  0  0  0  0  0  0  0  0  0
   -5.8653   -1.7077    0.8213 H   0  0  0  0  0  0  0  0  0  0  0  0
   -4.1392   -2.0305    1.0406 H   0  0  0  0  0  0  0  0  0  0  0  0
   -4.8162   -2.1858   -1.0249 C   0  0  0  0  0  0  0  0  0  0  0  0
   -5.6043   -1.7814   -1.6902 H   0  0  0  0  0  0  0  0  0  0  0  0
   -4.9668   -3.2813   -0.9449 H   0  0  0  0  0  0  0  0  0  0  0  0
   -3.8372   -2.0110   -1.5128 H   0  0  0  0  0  0  0  0  0  0  0  0
  1 16  1  0  0  0  0
  1 14  1  0  0  0  0
  5  6  2  0  0  0  0
  5 12  1  0  0  0  0
  6  3  1  0  0  0  0
  6  7  1  0  0  0  0
  7  8  1  0  0  0  0
  7  9  2  0  0  0  0
  9  2  1  0  0  0  0
 10 11  1  0  0  0  0
 10  9  1  0  0  0  0
 12 10  2  0  0  0  0
 13 12  1  0  0  0  0
 14  5  1  0  0  0  0
 14 15  1  0  0  0  0
 16 17  1  0  0  0  0
 18 16  1  0  0  0  0
 19 20  1  6  0  0  0
 19 21  1  0  0  0  0
 19  4  1  0  0  0  0
 19 16  1  0  0  0  0
 21 22  1  0  0  0  0
 23 21  1  0  0  0  0
 24 21  1  0  0  0  0
 25  2  1  0  0  0  0
 25 27  1  0  0  0  0
 25 26  1  0  0  0  0
 28 30  1  0  0  0  0
 28 25  1  0  0  0  0
 29 28  1  0  0  0  0
 31 28  1  0  0  0  0
 32  2  1  0  0  0  0
 32 33  1  0  0  0  0
 32 34  1  0  0  0  0
 35 37  1  0  0  0  0
 35 32  1  0  0  0  0
 36 35  1  0  0  0  0
 38 35  1  0  0  0  0
M  CHG  1   3  -1
M  END
