2,3,5
 OpenBabel05122313063D

 33 33  0  0  1  0  0  0  0  0999 V2000
    1.4942   -2.7899    0.8616 Cl  0  0  0  0  0  0  0  0  0  0  0  0
    1.0662    1.1628    0.5424 O   0  0  0  0  0  1  0  0  0  0  0  0
   -2.5985    0.2248   -0.2419 O   0  0  0  0  0  1  0  0  0  0  0  0
   -3.6835   -1.7256   -0.5185 O   0  0  0  0  0  0  0  0  0  0  0  0
   -0.2875   -0.9111    0.2242 N   0  0  0  0  0  2  0  0  0  0  0  0
    3.0603   -0.0858    0.0066 C   0  0  0  0  0  0  0  0  0  0  0  0
    4.2957   -0.5497    0.4932 C   0  0  0  0  0  0  0  0  0  0  0  0
    5.3978   -0.6603   -0.3690 C   0  0  0  0  0  0  0  0  0  0  0  0
    5.2731   -0.3099   -1.7217 C   0  0  0  0  0  0  0  0  0  0  0  0
    4.0397    0.1514   -2.2099 C   0  0  0  0  0  0  0  0  0  0  0  0
    2.9356    0.2619   -1.3538 C   0  0  0  0  0  0  0  0  0  0  0  0
    1.8196    0.0241    0.9026 C   0  0  2  0  0  0  0  0  0  0  0  0
    0.8950   -1.1728    0.6145 C   0  0  1  0  0  3  0  0  0  0  0  0
    2.1140    0.0898    2.4098 C   0  0  0  0  0  0  0  0  0  0  0  0
   -1.3420   -1.8310   -0.0905 C   0  0  0  0  0  0  0  0  0  0  0  0
   -2.6023   -1.0070   -0.2876 C   0  0  1  0  0  3  0  0  0  0  0  0
   -4.9259   -0.9839   -0.7323 C   0  0  0  0  0  0  0  0  0  0  0  0
   -6.0299   -1.9886   -0.9675 C   0  0  0  0  0  0  0  0  0  0  0  0
    4.4099   -0.8243    1.5512 H   0  0  0  0  0  0  0  0  0  0  0  0
    6.3618   -1.0185    0.0231 H   0  0  0  0  0  0  0  0  0  0  0  0
    6.1391   -0.3944   -2.3958 H   0  0  0  0  0  0  0  0  0  0  0  0
    3.9338    0.4313   -3.2690 H   0  0  0  0  0  0  0  0  0  0  0  0
    1.9673    0.6234   -1.7348 H   0  0  0  0  0  0  0  0  0  0  0  0
    1.1611    0.2757    2.9418 H   0  0  0  0  0  0  0  0  0  0  0  0
    2.5638   -0.8504    2.7800 H   0  0  0  0  0  0  0  0  0  0  0  0
    2.8083    0.9293    2.6014 H   0  0  0  0  0  0  0  0  0  0  0  0
   -1.1273   -2.3840   -1.0317 H   0  0  0  0  0  0  0  0  0  0  0  0
   -1.5015   -2.5922    0.7037 H   0  0  0  0  0  0  0  0  0  0  0  0
   -4.7691   -0.3040   -1.5944 H   0  0  0  0  0  0  0  0  0  0  0  0
   -5.0998   -0.3516    0.1621 H   0  0  0  0  0  0  0  0  0  0  0  0
   -5.8236   -2.6102   -1.8608 H   0  0  0  0  0  0  0  0  0  0  0  0
   -6.1571   -2.6573   -0.0938 H   0  0  0  0  0  0  0  0  0  0  0  0
   -6.9850   -1.4527   -1.1334 H   0  0  0  0  0  0  0  0  0  0  0  0
  4 16  1  0  0  0  0
  5 13  1  0  0  0  0
  6  7  1  0  0  0  0
  6 12  1  0  0  0  0
  7 19  1  0  0  0  0
  8 20  1  0  0  0  0
  8  7  2  0  0  0  0
  9  8  1  0  0  0  0
 10  9  2  0  0  0  0
 10 11  1  0  0  0  0
 11  6  2  0  0  0  0
 12  2  1  6  0  0  0
 12 14  1  0  0  0  0
 13  1  1  1  0  0  0
 13 12  1  0  0  0  0
 14 26  1  0  0  0  0
 14 25  1  0  0  0  0
 14 24  1  0  0  0  0
 15  5  1  0  0  0  0
 15 28  1  0  0  0  0
 16  3  1  6  0  0  0
 16 15  1  0  0  0  0
 17  4  1  0  0  0  0
 17 30  1  0  0  0  0
 18 17  1  0  0  0  0
 18 32  1  0  0  0  0
 21  9  1  0  0  0  0
 22 10  1  0  0  0  0
 23 11  1  0  0  0  0
 27 15  1  0  0  0  0
 29 17  1  0  0  0  0
 31 18  1  0  0  0  0
 33 18  1  0  0  0  0
M  END
