2,5,8
 OpenBabel05122313063D

 37 39  0  0  0  0  0  0  0  0999 V2000
    0.6928    0.6976   -0.0000 N   0  0  0  0  0  0  0  0  0  0  0  0
   -0.4585   -0.0449    0.0001 N   0  0  0  0  0  2  0  0  0  0  0  0
    3.4022    1.8304   -0.0007 N   0  0  0  0  0  0  0  0  0  0  0  0
    6.7508    0.4836    0.0008 N   0  0  0  0  0  0  0  0  0  0  0  0
    1.6648   -1.4052    0.0004 O   0  5  0  0  0  0  0  0  0  0  0  0
    7.1386   -0.6902    0.0016 O   0  0  0  0  0  0  0  0  0  0  0  0
    7.5003    1.4738    0.0004 O   0  0  0  0  0  0  0  0  0  0  0  0
   -2.1442   -2.1463    0.0006 O   0  5  0  0  0  0  0  0  0  0  0  0
    1.7446   -0.1194    0.0001 C   0  0  0  0  0  0  0  0  0  0  0  0
    3.0969    0.4618   -0.0000 C   0  0  0  0  0  0  0  0  0  0  0  0
    4.2979   -0.2482    0.0007 C   0  0  0  0  0  0  0  0  0  0  0  0
    4.3916   -1.3368    0.0013 H   0  0  0  0  0  0  0  0  0  0  0  0
    5.3347    0.7213    0.0003 C   0  0  0  0  0  0  0  0  0  0  0  0
    4.7555    1.9950   -0.0005 C   0  0  0  0  0  0  0  0  0  0  0  0
    5.2329    2.9789   -0.0010 H   0  0  0  0  0  0  0  0  0  0  0  0
    2.4563    2.9362   -0.0018 C   0  0  0  0  0  0  0  0  0  0  0  0
    3.0304    3.8822   -0.0026 H   0  0  0  0  0  0  0  0  0  0  0  0
    1.7968    2.8805    0.8834 H   0  0  0  0  0  0  0  0  0  0  0  0
    1.7970    2.8789   -0.8872 H   0  0  0  0  0  0  0  0  0  0  0  0
   -1.5723    0.6607    0.0002 C   0  0  0  0  0  3  0  0  0  0  0  0
   -1.4224    1.7558    0.0003 H   0  0  0  0  0  0  0  0  0  0  0  0
   -2.9038    0.1381    0.0003 C   0  0  0  0  0  0  0  0  0  0  0  0
   -3.1032   -1.2858    0.0004 C   0  0  0  0  0  0  0  0  0  0  0  0
   -4.4567   -1.7906    0.0005 C   0  0  0  0  0  0  0  0  0  0  0  0
   -4.5657   -2.8851    0.0006 H   0  0  0  0  0  0  0  0  0  0  0  0
   -5.5429   -0.9484    0.0004 C   0  0  0  0  0  0  0  0  0  0  0  0
   -6.5658   -1.3599    0.0004 H   0  0  0  0  0  0  0  0  0  0  0  0
   -5.3837    0.4754    0.0003 C   0  0  0  0  0  0  0  0  0  0  0  0
   -4.0501    1.0287    0.0003 C   0  0  0  0  0  0  0  0  0  0  0  0
   -3.9436    2.4518    0.0003 C   0  0  0  0  0  0  0  0  0  0  0  0
   -2.9507    2.9226    0.0004 H   0  0  0  0  0  0  0  0  0  0  0  0
   -5.0656    3.2745    0.0003 C   0  0  0  0  0  0  0  0  0  0  0  0
   -4.9339    4.3682    0.0003 H   0  0  0  0  0  0  0  0  0  0  0  0
   -6.3689    2.7212    0.0003 C   0  0  0  0  0  0  0  0  0  0  0  0
   -7.2530    3.3771    0.0002 H   0  0  0  0  0  0  0  0  0  0  0  0
   -6.5121    1.3385    0.0003 C   0  0  0  0  0  0  0  0  0  0  0  0
   -7.5153    0.8813    0.0003 H   0  0  0  0  0  0  0  0  0  0  0  0
  1  2  1  0  0  0  0
  1  9  2  0  0  0  0
  2 20  1  0  0  0  0
  3 14  1  0  0  0  0
  3 10  1  0  0  0  0
  4  6  2  0  0  0  0
  7  4  2  0  0  0  0
  9  5  1  0  0  0  0
 10  9  1  0  0  0  0
 10 11  2  0  0  0  0
 11 12  1  0  0  0  0
 13 11  1  0  0  0  0
 13  4  1  0  0  0  0
 14 13  2  0  0  0  0
 15 14  1  0  0  0  0
 16  3  1  0  0  0  0
 16 18  1  0  0  0  0
 17 16  1  0  0  0  0
 19 16  1  0  0  0  0
 20 21  1  0  0  0  0
 20 22  1  0  0  0  0
 22 29  2  0  0  0  0
 22 23  1  0  0  0  0
 23 24  2  0  0  0  0
 23  8  1  0  0  0  0
 24 25  1  0  0  0  0
 26 27  1  0  0  0  0
 26 24  1  0  0  0  0
 28 26  2  0  0  0  0
 29 28  1  0  0  0  0
 30 29  1  0  0  0  0
 30 31  1  0  0  0  0
 32 33  1  0  0  0  0
 32 30  2  0  0  0  0
 34 32  1  0  0  0  0
 34 36  2  0  0  0  0
 35 34  1  0  0  0  0
 36 37  1  0  0  0  0
 36 28  1  0  0  0  0
M  CHG  2   5  -1   8  -1
M  END
