1,2,4
 OpenBabel05122313063D

 34 34  0  0  0  0  0  0  0  0999 V2000
    3.0714   -0.3647   -0.0205 O   0  5  0  0  0  0  0  0  0  0  0  0
   -0.4868   -1.7002   -0.2323 O   0  5  0  0  0  0  0  0  0  0  0  0
   -8.3436    1.9032    0.0428 O   0  0  0  0  0  0  0  0  0  0  0  0
    0.5068    0.5889   -0.1467 N   0  0  0  0  0  2  0  0  0  0  0  0
   -0.8682    0.5745   -0.1372 N   0  0  0  0  0  0  0  0  0  0  0  0
    3.4499    0.9099   -0.0254 C   0  0  0  0  0  0  0  0  0  0  0  0
    4.8313    1.2035    0.0052 C   0  0  0  0  0  0  0  0  0  0  0  0
    5.2729    2.5292    0.0283 C   0  0  0  0  0  0  0  0  0  0  0  0
    4.3525    3.5978    0.0241 C   0  0  0  0  0  0  0  0  0  0  0  0
    2.9871    3.3205   -0.0054 C   0  0  0  0  0  0  0  0  0  0  0  0
    2.5046    1.9855   -0.0353 C   0  0  0  0  0  0  0  0  0  0  0  0
    1.0829    1.7620   -0.0623 C   0  0  0  0  0  3  0  0  0  0  0  0
   -1.3036   -0.6614   -0.2110 C   0  0  0  0  0  0  0  0  0  0  0  0
   -2.7724   -0.9632   -0.2566 C   0  0  0  0  0  0  0  0  0  0  0  0
   -3.6945    0.2471   -0.1193 C   0  0  0  0  0  0  0  0  0  0  0  0
   -5.1772   -0.1257   -0.1870 C   0  0  0  0  0  0  0  0  0  0  0  0
   -6.1085    1.0780   -0.0402 C   0  0  0  0  0  0  0  0  0  0  0  0
   -7.5855    0.7165   -0.1124 C   0  0  0  0  0  0  0  0  0  0  0  0
    5.5352    0.3595    0.0130 H   0  0  0  0  0  0  0  0  0  0  0  0
    6.3537    2.7364    0.0525 H   0  0  0  0  0  0  0  0  0  0  0  0
    4.7076    4.6380    0.0429 H   0  0  0  0  0  0  0  0  0  0  0  0
    2.2531    4.1416   -0.0104 H   0  0  0  0  0  0  0  0  0  0  0  0
    0.4105    2.6398   -0.0146 H   0  0  0  0  0  0  0  0  0  0  0  0
   -2.9601   -1.5021   -1.2127 H   0  0  0  0  0  0  0  0  0  0  0  0
   -2.9780   -1.7190    0.5340 H   0  0  0  0  0  0  0  0  0  0  0  0
   -3.4769    0.7669    0.8380 H   0  0  0  0  0  0  0  0  0  0  0  0
   -3.4496    0.9841   -0.9126 H   0  0  0  0  0  0  0  0  0  0  0  0
   -5.4072   -0.8736    0.6059 H   0  0  0  0  0  0  0  0  0  0  0  0
   -5.3834   -0.6415   -1.1524 H   0  0  0  0  0  0  0  0  0  0  0  0
   -5.8934    1.8285   -0.8317 H   0  0  0  0  0  0  0  0  0  0  0  0
   -5.9223    1.5918    0.9280 H   0  0  0  0  0  0  0  0  0  0  0  0
   -7.7923    0.2123   -1.0911 H   0  0  0  0  0  0  0  0  0  0  0  0
   -7.8184   -0.0363    0.6841 H   0  0  0  0  0  0  0  0  0  0  0  0
   -9.2846    1.6622   -0.0141 H   0  0  0  0  0  0  0  0  0  0  0  0
  2 13  1  0  0  0  0
  4  5  1  0  0  0  0
  4 12  1  0  0  0  0
  6  1  1  0  0  0  0
  6  7  1  0  0  0  0
  7 19  1  0  0  0  0
  7  8  2  0  0  0  0
  8 20  1  0  0  0  0
  9  8  1  0  0  0  0
  9 21  1  0  0  0  0
 10  9  2  0  0  0  0
 11  6  2  0  0  0  0
 11 10  1  0  0  0  0
 12 11  1  0  0  0  0
 12 23  1  0  0  0  0
 13  5  2  0  0  0  0
 14 13  1  0  0  0  0
 14 15  1  0  0  0  0
 14 25  1  0  0  0  0
 15 26  1  0  0  0  0
 16 15  1  0  0  0  0
 16 17  1  0  0  0  0
 16 28  1  0  0  0  0
 17 31  1  0  0  0  0
 18 17  1  0  0  0  0
 18  3  1  0  0  0  0
 18 33  1  0  0  0  0
 22 10  1  0  0  0  0
 24 14  1  0  0  0  0
 27 15  1  0  0  0  0
 29 16  1  0  0  0  0
 30 17  1  0  0  0  0
 32 18  1  0  0  0  0
 34  3  1  0  0  0  0
M  CHG  2   1  -1   2  -1
M  END
