1,3,4
 OpenBabel05122313063D

 38 40  0  0  0  0  0  0  0  0999 V2000
   -1.0044   -0.9989   -0.1466 N   0  0  0  0  0  2  0  0  0  0  0  0
    0.0493   -1.7582    0.2585 N   0  0  0  0  0  0  0  0  0  0  0  0
   -2.1980    1.2180   -0.9280 O   0  5  0  0  0  0  0  0  0  0  0  0
    1.1022   -0.3823   -1.2434 O   0  5  0  0  0  0  0  0  0  0  0  0
    6.0466   -3.9952    0.6043 O   0  0  0  0  0  0  0  0  0  0  0  0
   -3.3972   -0.5624    0.1279 C   0  0  0  0  0  0  0  0  0  0  0  0
   -3.3340    0.7182   -0.4945 C   0  0  0  0  0  0  0  0  0  0  0  0
   -4.5121    1.5193   -0.6097 C   0  0  0  0  0  0  0  0  0  0  0  0
   -4.4094    2.5069   -1.0807 H   0  0  0  0  0  0  0  0  0  0  0  0
   -5.7236    1.0527   -0.1453 C   0  0  0  0  0  0  0  0  0  0  0  0
   -6.6272    1.6746   -0.2449 H   0  0  0  0  0  0  0  0  0  0  0  0
   -5.8467   -0.2346    0.4653 C   0  0  0  0  0  0  0  0  0  0  0  0
   -7.1052   -0.7094    0.9285 C   0  0  0  0  0  0  0  0  0  0  0  0
   -7.9859   -0.0588    0.8097 H   0  0  0  0  0  0  0  0  0  0  0  0
   -7.2279   -1.9618    1.5143 C   0  0  0  0  0  0  0  0  0  0  0  0
   -8.2065   -2.3185    1.8685 H   0  0  0  0  0  0  0  0  0  0  0  0
   -6.0811   -2.7819    1.6462 C   0  0  0  0  0  0  0  0  0  0  0  0
   -6.1716   -3.7802    2.1009 H   0  0  0  0  0  0  0  0  0  0  0  0
   -4.8388   -2.3436    1.2004 C   0  0  0  0  0  0  0  0  0  0  0  0
   -3.9753   -3.0155    1.3027 H   0  0  0  0  0  0  0  0  0  0  0  0
   -4.6743   -1.0606    0.6058 C   0  0  0  0  0  0  0  0  0  0  0  0
   -2.1878   -1.2923    0.3570 C   0  0  0  0  0  3  0  0  0  0  0  0
   -2.1948   -2.1653    1.0310 H   0  0  0  0  0  0  0  0  0  0  0  0
    1.1398   -1.3725   -0.3819 C   0  0  0  0  0  0  0  0  0  0  0  0
    2.4234   -2.0464   -0.1375 C   0  0  0  0  0  0  0  0  0  0  0  0
    3.5824   -1.6241   -0.8174 C   0  0  0  0  0  0  0  0  0  0  0  0
    3.4987   -0.7901   -1.5287 H   0  0  0  0  0  0  0  0  0  0  0  0
    4.8166   -2.2492   -0.5993 C   0  0  0  0  0  0  0  0  0  0  0  0
    5.7023   -1.8992   -1.1459 H   0  0  0  0  0  0  0  0  0  0  0  0
    4.9038   -3.3194    0.3171 C   0  0  0  0  0  0  0  0  0  0  0  0
    3.7432   -3.7480    1.0050 C   0  0  0  0  0  0  0  0  0  0  0  0
    3.8388   -4.5839    1.7129 H   0  0  0  0  0  0  0  0  0  0  0  0
    2.5221   -3.1210    0.7798 C   0  0  0  0  0  0  0  0  0  0  0  0
    1.6144   -3.4462    1.3074 H   0  0  0  0  0  0  0  0  0  0  0  0
    7.2400   -3.6186   -0.0575 C   0  0  0  0  0  0  0  0  0  0  0  0
    7.1570   -3.7374   -1.1610 H   0  0  0  0  0  0  0  0  0  0  0  0
    8.0321   -4.2923    0.3182 H   0  0  0  0  0  0  0  0  0  0  0  0
    7.5239   -2.5659    0.1669 H   0  0  0  0  0  0  0  0  0  0  0  0
  1  2  1  0  0  0  0
  1 22  1  0  0  0  0
  3  7  1  0  0  0  0
  4 24  1  0  0  0  0
  6 22  1  0  0  0  0
  6 21  1  0  0  0  0
  7  6  2  0  0  0  0
  8  7  1  0  0  0  0
  8 10  2  0  0  0  0
  9  8  1  0  0  0  0
 10 12  1  0  0  0  0
 11 10  1  0  0  0  0
 12 21  2  0  0  0  0
 12 13  1  0  0  0  0
 13 15  2  0  0  0  0
 14 13  1  0  0  0  0
 15 17  1  0  0  0  0
 15 16  1  0  0  0  0
 17 18  1  0  0  0  0
 19 20  1  0  0  0  0
 19 17  2  0  0  0  0
 21 19  1  0  0  0  0
 22 23  1  0  0  0  0
 24 25  1  0  0  0  0
 24  2  2  0  0  0  0
 25 33  1  0  0  0  0
 26 28  1  0  0  0  0
 26 25  2  0  0  0  0
 27 26  1  0  0  0  0
 28 30  2  0  0  0  0
 29 28  1  0  0  0  0
 30  5  1  0  0  0  0
 30 31  1  0  0  0  0
 31 32  1  0  0  0  0
 33 31  2  0  0  0  0
 33 34  1  0  0  0  0
 35 38  1  0  0  0  0
 35 37  1  0  0  0  0
 35  5  1  0  0  0  0
 36 35  1  0  0  0  0
M  CHG  2   3  -1   4  -1
M  END
