1,5,18
 OpenBabel05122313063D

 21 22  0  0  1  0  0  0  0  0999 V2000
    1.8909    1.3100    0.0125 O   0  5  0  0  0  0  0  0  0  0  0  0
    1.0531    2.3594   -0.1148 C   0  0  0  0  0  0  0  0  0  0  0  0
    1.4497    3.5156   -0.1788 O   0  0  0  0  0  0  0  0  0  0  0  0
   -0.3757    1.8933   -0.1395 C   0  0  0  0  0  0  0  0  0  0  0  0
   -0.3907    0.5568    0.0192 N   0  0  0  0  0  2  0  0  0  0  0  0
   -1.5329   -0.1228    0.0885 C   0  0  2  0  0  3  0  0  0  0  0  0
   -2.7870    0.5209   -0.0088 C   0  0  0  0  0  0  0  0  0  0  0  0
   -2.8154    1.8813   -0.1703 N   0  0  0  0  0  0  0  0  0  0  0  0
   -1.6486    2.5480   -0.2311 C   0  0  0  0  0  0  0  0  0  0  0  0
   -1.7050    4.0397   -0.4074 C   0  0  0  0  0  0  0  0  0  0  0  0
   -2.1751    4.2789   -1.3835 H   0  0  0  0  0  0  0  0  0  0  0  0
   -0.6959    4.4885   -0.3630 H   0  0  0  0  0  0  0  0  0  0  0  0
   -2.3576    4.4807    0.3722 H   0  0  0  0  0  0  0  0  0  0  0  0
   -3.8880   -0.2550    0.0642 N   0  0  0  0  0  0  0  0  0  0  0  0
   -3.6633   -1.5836    0.2301 C   0  0  0  0  0  0  0  0  0  0  0  0
   -2.4795   -2.2813    0.3446 N   0  0  0  0  0  0  0  0  0  0  0  0
   -1.3789   -1.5358    0.2808 C   0  0  0  0  0  0  0  0  0  0  0  0
   -0.1417   -1.9573    0.3750 O   0  5  0  0  0  0  0  0  0  0  0  0
   -4.7756   -2.3611    0.2943 N   0  0  0  0  0  0  0  0  0  0  0  0
   -4.6701   -3.3607    0.4492 H   0  0  0  0  0  0  0  0  0  0  0  0
   -5.6900   -1.9177    0.2481 H   0  0  0  0  0  0  0  0  0  0  0  0
  2  1  1  0  0  0  0
  3  2  2  0  0  0  0
  4  2  1  0  0  0  0
  4  5  1  0  0  0  0
  5  6  1  0  0  0  0
  6  7  1  1  0  0  0
  6 17  1  0  0  0  0
  7 14  1  0  0  0  0
  8  7  2  0  0  0  0
  9  8  1  0  0  0  0
  9  4  2  0  0  0  0
 10 12  1  0  0  0  0
 10  9  1  0  0  0  0
 10 13  1  0  0  0  0
 11 10  1  0  0  0  0
 14 15  2  0  0  0  0
 15 19  1  0  0  0  0
 15 16  1  0  0  0  0
 17 16  2  0  0  0  0
 17 18  1  0  0  0  0
 19 20  1  0  0  0  0
 21 19  1  0  0  0  0
M  CHG  2   1  -1  18  -1
M  END
