1,2,4
 OpenBabel05122313063D

 21 20  0  0  1  0  0  0  0  0999 V2000
   -1.9322    1.4959    0.3489 O   0  0  0  0  0  1  0  0  0  0  0  0
    0.3849   -1.0055   -1.0481 O   0  5  0  0  0  0  0  0  0  0  0  0
   -1.4042   -2.3965   -0.6551 N   0  0  0  0  0  0  0  0  0  0  0  0
   -1.9244   -1.1968   -0.2100 N   0  0  0  0  0  2  0  0  0  0  0  0
   -3.8910    2.5030    1.2016 C   0  0  0  0  0  0  0  0  0  0  0  0
   -3.3310    2.9711    2.0377 H   0  0  0  0  0  0  0  0  0  0  0  0
   -4.9187    2.2737    1.5388 H   0  0  0  0  0  0  0  0  0  0  0  0
   -3.9424    3.2595    0.3900 H   0  0  0  0  0  0  0  0  0  0  0  0
   -3.1625    1.2718    0.7172 C   0  0  2  0  0  3  0  0  0  0  0  0
   -3.7909    0.0270    0.6862 C   0  0  0  0  0  0  0  0  0  0  0  0
   -4.8304   -0.0362    1.0337 H   0  0  0  0  0  0  0  0  0  0  0  0
   -3.1837   -1.1768    0.2309 C   0  0  0  0  0  0  0  0  0  0  0  0
   -3.9572   -2.4682    0.2355 C   0  0  0  0  0  0  0  0  0  0  0  0
   -4.0111   -2.8884   -0.7890 H   0  0  0  0  0  0  0  0  0  0  0  0
   -4.9781   -2.3180    0.6317 H   0  0  0  0  0  0  0  0  0  0  0  0
   -3.4284   -3.2321    0.8403 H   0  0  0  0  0  0  0  0  0  0  0  0
   -0.1745   -2.1954   -1.0708 C   0  0  0  0  0  0  0  0  0  0  0  0
    0.6534   -3.3339   -1.5901 C   0  0  0  0  0  0  0  0  0  0  0  0
    0.0691   -4.2709   -1.5877 H   0  0  0  0  0  0  0  0  0  0  0  0
    1.5595   -3.4581   -0.9613 H   0  0  0  0  0  0  0  0  0  0  0  0
    1.0028   -3.1147   -2.6196 H   0  0  0  0  0  0  0  0  0  0  0  0
  3  4  1  0  0  0  0
  4 12  1  0  0  0  0
  5  7  1  0  0  0  0
  5  6  1  0  0  0  0
  8  5  1  0  0  0  0
  9  1  1  1  0  0  0
  9  5  1  0  0  0  0
 10  9  1  0  0  0  0
 10 11  1  0  0  0  0
 12 13  1  0  0  0  0
 12 10  2  0  0  0  0
 13 15  1  0  0  0  0
 13 16  1  0  0  0  0
 14 13  1  0  0  0  0
 17  2  1  0  0  0  0
 17  3  2  0  0  0  0
 18 19  1  0  0  0  0
 18 17  1  0  0  0  0
 18 20  1  0  0  0  0
 21 18  1  0  0  0  0
M  CHG  1   2  -1
M  END
