1,2,3
 OpenBabel05122313063D

 30 30  0  0  0  0  0  0  0  0999 V2000
   -2.0509   -1.0015   -0.4959 O   0  5  0  0  0  0  0  0  0  0  0  0
    0.7085    1.3321   -1.2523 O   0  5  0  0  0  0  0  0  0  0  0  0
   -1.3928    1.5260    0.0046 N   0  0  0  0  0  2  0  0  0  0  0  0
   -0.5349    2.5740    0.2172 N   0  0  0  0  0  0  0  0  0  0  0  0
   -3.2438   -0.7559    0.0119 C   0  0  0  0  0  0  0  0  0  0  0  0
   -4.2217   -1.7778    0.0594 C   0  0  0  0  0  0  0  0  0  0  0  0
   -3.9637   -2.7588   -0.3639 H   0  0  0  0  0  0  0  0  0  0  0  0
   -5.4740   -1.5292    0.6271 C   0  0  0  0  0  0  0  0  0  0  0  0
   -6.2246   -2.3343    0.6468 H   0  0  0  0  0  0  0  0  0  0  0  0
   -5.7869   -0.2658    1.1731 C   0  0  0  0  0  0  0  0  0  0  0  0
   -6.7758   -0.0822    1.6169 H   0  0  0  0  0  0  0  0  0  0  0  0
   -4.8281    0.7458    1.1461 C   0  0  0  0  0  0  0  0  0  0  0  0
   -5.0517    1.7366    1.5724 H   0  0  0  0  0  0  0  0  0  0  0  0
   -3.5514    0.5315    0.5657 C   0  0  0  0  0  0  0  0  0  0  0  0
   -2.5610    1.5732    0.6018 C   0  0  0  0  0  3  0  0  0  0  0  0
   -2.7709    2.4891    1.1851 H   0  0  0  0  0  0  0  0  0  0  0  0
    0.5522    2.3926   -0.5081 C   0  0  0  0  0  0  0  0  0  0  0  0
    1.6577    3.4134   -0.5029 C   0  0  0  0  0  0  0  0  0  0  0  0
    1.4615    4.1265    0.3221 H   0  0  0  0  0  0  0  0  0  0  0  0
    1.5818    3.9854   -1.4537 H   0  0  0  0  0  0  0  0  0  0  0  0
    3.0502    2.7739   -0.4009 C   0  0  0  0  0  0  0  0  0  0  0  0
    3.1610    2.0493   -1.2356 H   0  0  0  0  0  0  0  0  0  0  0  0
    3.8221    3.5575   -0.5579 H   0  0  0  0  0  0  0  0  0  0  0  0
    3.2996    2.0562    0.9288 C   0  0  0  0  0  0  0  0  0  0  0  0
    2.4737    1.3368    1.1112 H   0  0  0  0  0  0  0  0  0  0  0  0
    3.2444    2.7930    1.7610 H   0  0  0  0  0  0  0  0  0  0  0  0
    4.6330    1.3112    0.9749 C   0  0  0  0  0  0  0  0  0  0  0  0
    4.7860    0.8097    1.9522 H   0  0  0  0  0  0  0  0  0  0  0  0
    5.4903    1.9979    0.8122 H   0  0  0  0  0  0  0  0  0  0  0  0
    4.6786    0.5273    0.1903 H   0  0  0  0  0  0  0  0  0  0  0  0
  1  5  1  0  0  0  0
  2 17  1  0  0  0  0
  3  4  1  0  0  0  0
  3 15  1  0  0  0  0
  5  6  2  0  0  0  0
  5 14  1  0  0  0  0
  6  8  1  0  0  0  0
  7  6  1  0  0  0  0
  8  9  1  0  0  0  0
  8 10  2  0  0  0  0
 10 11  1  0  0  0  0
 12 10  1  0  0  0  0
 12 13  1  0  0  0  0
 14 15  1  0  0  0  0
 14 12  2  0  0  0  0
 15 16  1  0  0  0  0
 17 18  1  0  0  0  0
 17  4  2  0  0  0  0
 18 21  1  0  0  0  0
 18 19  1  0  0  0  0
 20 18  1  0  0  0  0
 21 24  1  0  0  0  0
 22 21  1  0  0  0  0
 23 21  1  0  0  0  0
 24 27  1  0  0  0  0
 24 25  1  0  0  0  0
 24 26  1  0  0  0  0
 27 28  1  0  0  0  0
 29 27  1  0  0  0  0
 30 27  1  0  0  0  0
M  CHG  2   1  -1   2  -1
M  END
