1,2,6
 OpenBabel05122313063D

 44 45  0  0  0  0  0  0  0  0999 V2000
    1.9568    0.7068    0.0230 O   0  5  0  0  0  0  0  0  0  0  0  0
   -2.0564    0.7318    0.0236 O   0  5  0  0  0  0  0  0  0  0  0  0
   -8.4692   -2.7300   -0.0763 O   0  0  0  0  0  0  0  0  0  0  0  0
   -8.8550   -0.5789   -0.0079 O   0  0  0  0  0  0  0  0  0  0  0  0
    6.3002   -1.2516   -0.0442 N   0  0  0  0  0  0  0  0  0  0  0  0
   -0.3104   -1.1385   -0.0322 N   0  0  0  0  0  2  0  0  0  0  0  0
   -1.6100   -1.5540   -0.0438 N   0  0  0  0  0  0  0  0  0  0  0  0
   -8.1015   -1.5542   -0.0395 N   0  0  0  0  0  0  0  0  0  0  0  0
    7.1030    0.8034   -1.2284 C   0  0  0  0  0  0  0  0  0  0  0  0
    7.5850    1.7886   -1.0646 H   0  0  0  0  0  0  0  0  0  0  0  0
    6.1297    0.9720   -1.7302 H   0  0  0  0  0  0  0  0  0  0  0  0
    7.7438    0.2224   -1.9227 H   0  0  0  0  0  0  0  0  0  0  0  0
    6.9167    0.0612    0.0987 C   0  0  0  0  0  0  0  0  0  0  0  0
    6.3137    0.6700    0.8038 H   0  0  0  0  0  0  0  0  0  0  0  0
    7.9002   -0.0809    0.5943 H   0  0  0  0  0  0  0  0  0  0  0  0
    7.5667   -3.0544    1.1480 C   0  0  0  0  0  0  0  0  0  0  0  0
    8.2743   -3.8934    0.9891 H   0  0  0  0  0  0  0  0  0  0  0  0
    6.6628   -3.4531    1.6501 H   0  0  0  0  0  0  0  0  0  0  0  0
    8.0448   -2.3320    1.8405 H   0  0  0  0  0  0  0  0  0  0  0  0
    7.2067   -2.3856   -0.1820 C   0  0  0  0  0  0  0  0  0  0  0  0
    8.1277   -2.0189   -0.6827 H   0  0  0  0  0  0  0  0  0  0  0  0
    6.7671   -3.1242   -0.8830 H   0  0  0  0  0  0  0  0  0  0  0  0
    4.9271   -1.4066   -0.0508 C   0  0  0  0  0  0  0  0  0  0  0  0
    4.3345   -2.7144   -0.0902 C   0  0  0  0  0  0  0  0  0  0  0  0
    4.9584   -3.6158   -0.1008 H   0  0  0  0  0  0  0  0  0  0  0  0
    2.9601   -2.8505   -0.0923 C   0  0  0  0  0  3  0  0  0  0  0  0
    2.5264   -3.8627   -0.1168 H   0  0  0  0  0  0  0  0  0  0  0  0
    2.0612   -1.7431   -0.0539 C   0  0  0  0  0  0  0  0  0  0  0  0
    2.6449   -0.4147   -0.0112 C   0  0  0  0  0  0  0  0  0  0  0  0
    4.0571   -0.2949   -0.0146 C   0  0  0  0  0  0  0  0  0  0  0  0
    4.4422    0.7317   -0.0056 H   0  0  0  0  0  0  0  0  0  0  0  0
    0.6656   -2.0279   -0.0606 C   0  0  0  0  0  0  0  0  0  0  0  0
    0.3388   -3.0827   -0.0930 H   0  0  0  0  0  0  0  0  0  0  0  0
   -2.4431   -0.5280   -0.0130 C   0  0  0  0  0  0  0  0  0  0  0  0
   -3.8971   -0.8015   -0.0199 C   0  0  0  0  0  0  0  0  0  0  0  0
   -4.3844   -2.1297   -0.0614 C   0  0  0  0  0  0  0  0  0  0  0  0
   -3.6574   -2.9528   -0.0881 H   0  0  0  0  0  0  0  0  0  0  0  0
   -5.7570   -2.3804   -0.0680 C   0  0  0  0  0  0  0  0  0  0  0  0
   -6.1659   -3.3988   -0.0997 H   0  0  0  0  0  0  0  0  0  0  0  0
   -6.6456   -1.2938   -0.0327 C   0  0  0  0  0  0  0  0  0  0  0  0
   -6.1916    0.0318    0.0088 C   0  0  0  0  0  0  0  0  0  0  0  0
   -6.9299    0.8440    0.0353 H   0  0  0  0  0  0  0  0  0  0  0  0
   -4.8154    0.2725    0.0150 C   0  0  0  0  0  0  0  0  0  0  0  0
   -4.4259    1.2989    0.0472 H   0  0  0  0  0  0  0  0  0  0  0  0
  3  8  2  0  0  0  0
  5 13  1  0  0  0  0
  7  6  1  0  0  0  0
  7 34  2  0  0  0  0
  8 40  1  0  0  0  0
  8  4  2  0  0  0  0
  9 10  1  0  0  0  0
  9 13  1  0  0  0  0
 11  9  1  0  0  0  0
 12  9  1  0  0  0  0
 13 15  1  0  0  0  0
 13 14  1  0  0  0  0
 16 18  1  0  0  0  0
 16 19  1  0  0  0  0
 17 16  1  0  0  0  0
 20  5  1  0  0  0  0
 20 16  1  0  0  0  0
 21 20  1  0  0  0  0
 22 20  1  0  0  0  0
 23  5  1  0  0  0  0
 23 30  1  0  0  0  0
 24 23  2  0  0  0  0
 25 24  1  0  0  0  0
 26 24  1  0  0  0  0
 26 28  1  0  0  0  0
 27 26  1  0  0  0  0
 28 29  1  0  0  0  0
 29  1  1  0  0  0  0
 30 29  2  0  0  0  0
 30 31  1  0  0  0  0
 32 28  2  0  0  0  0
 32  6  1  0  0  0  0
 33 32  1  0  0  0  0
 34  2  1  0  0  0  0
 35 34  1  0  0  0  0
 35 43  1  0  0  0  0
 36 35  2  0  0  0  0
 37 36  1  0  0  0  0
 38 36  1  0  0  0  0
 38 40  2  0  0  0  0
 39 38  1  0  0  0  0
 40 41  1  0  0  0  0
 41 43  2  0  0  0  0
 41 42  1  0  0  0  0
 43 44  1  0  0  0  0
M  CHG  2   1  -1   2  -1
M  END
