1,3,4
 OpenBabel05122313063D

 40 41  0  0  0  0  0  0  0  0999 V2000
    0.2012   -1.7735    0.0240 N   0  0  0  0  0  2  0  0  0  0  0  0
   -1.1383   -1.9436    0.1818 N   0  0  0  0  0  0  0  0  0  0  0  0
    2.4663   -0.4162   -0.1717 O   0  5  0  0  0  0  0  0  0  0  0  0
   -1.1100    0.1766   -0.6881 O   0  5  0  0  0  0  0  0  0  0  0  0
    5.1108   -0.3216   -0.1706 O   0  0  0  0  0  0  0  0  0  0  0  0
   -7.4052   -0.7124    0.0004 O   0  0  0  0  0  0  0  0  0  0  0  0
   -6.1224   -2.8495    0.8357 O   0  0  0  0  0  0  0  0  0  0  0  0
   -7.0579   -2.5649    0.7609 H   0  0  0  0  0  0  0  0  0  0  0  0
    2.4192   -2.7516    0.3461 C   0  0  0  0  0  0  0  0  0  0  0  0
    3.1135   -1.5382    0.0711 C   0  0  0  0  0  0  0  0  0  0  0  0
    4.5449   -1.5257    0.0955 C   0  0  0  0  0  0  0  0  0  0  0  0
    5.2407   -2.7094    0.3825 C   0  0  0  0  0  0  0  0  0  0  0  0
    6.3388   -2.7109    0.3972 H   0  0  0  0  0  0  0  0  0  0  0  0
    4.5435   -3.9087    0.6553 C   0  0  0  0  0  0  0  0  0  0  0  0
    5.1129   -4.8230    0.8775 H   0  0  0  0  0  0  0  0  0  0  0  0
    3.1541   -3.9327    0.6448 C   0  0  0  0  0  0  0  0  0  0  0  0
    2.6038   -4.8611    0.8593 H   0  0  0  0  0  0  0  0  0  0  0  0
    0.9827   -2.7692    0.3790 C   0  0  0  0  0  3  0  0  0  0  0  0
    0.4714   -3.6804    0.7395 H   0  0  0  0  0  0  0  0  0  0  0  0
   -1.7716   -0.8585   -0.2302 C   0  0  0  0  0  0  0  0  0  0  0  0
   -3.2418   -0.7915   -0.1805 C   0  0  0  0  0  0  0  0  0  0  0  0
   -3.9017    0.3670   -0.6330 C   0  0  0  0  0  0  0  0  0  0  0  0
   -3.3025    1.2031   -1.0181 H   0  0  0  0  0  0  0  0  0  0  0  0
   -5.3029    0.4442   -0.5939 C   0  0  0  0  0  0  0  0  0  0  0  0
   -5.8112    1.3502   -0.9511 H   0  0  0  0  0  0  0  0  0  0  0  0
   -6.0412   -0.6399   -0.0996 C   0  0  0  0  0  0  0  0  0  0  0  0
   -5.3815   -1.8161    0.3621 C   0  0  0  0  0  0  0  0  0  0  0  0
   -3.9894   -1.8843    0.3179 C   0  0  0  0  0  0  0  0  0  0  0  0
   -3.4730   -2.7869    0.6705 H   0  0  0  0  0  0  0  0  0  0  0  0
    6.5300   -0.2238   -0.1762 C   0  0  0  0  0  0  0  0  0  0  0  0
    6.9569   -0.9276   -0.9295 H   0  0  0  0  0  0  0  0  0  0  0  0
    6.9364   -0.5224    0.8193 H   0  0  0  0  0  0  0  0  0  0  0  0
    6.8964    1.2110   -0.5050 C   0  0  0  0  0  0  0  0  0  0  0  0
    6.4951    1.4982   -1.4967 H   0  0  0  0  0  0  0  0  0  0  0  0
    7.9974    1.3328   -0.5212 H   0  0  0  0  0  0  0  0  0  0  0  0
    6.4764    1.9039    0.2505 H   0  0  0  0  0  0  0  0  0  0  0  0
   -8.1751    0.3931   -0.4358 C   0  0  0  0  0  0  0  0  0  0  0  0
   -7.9358    1.3112    0.1453 H   0  0  0  0  0  0  0  0  0  0  0  0
   -9.2353    0.1259   -0.2717 H   0  0  0  0  0  0  0  0  0  0  0  0
   -8.0138    0.6009   -1.5168 H   0  0  0  0  0  0  0  0  0  0  0  0
  1  2  1  0  0  0  0
  1 18  1  0  0  0  0
  3 10  1  0  0  0  0
  4 20  1  0  0  0  0
  5 11  1  0  0  0  0
  8  7  1  0  0  0  0
  9 18  1  0  0  0  0
  9 16  1  0  0  0  0
 10 11  1  0  0  0  0
 10  9  2  0  0  0  0
 11 12  2  0  0  0  0
 12 13  1  0  0  0  0
 12 14  1  0  0  0  0
 14 15  1  0  0  0  0
 16 14  2  0  0  0  0
 16 17  1  0  0  0  0
 18 19  1  0  0  0  0
 20 21  1  0  0  0  0
 20  2  2  0  0  0  0
 21 28  1  0  0  0  0
 22 24  1  0  0  0  0
 22 21  2  0  0  0  0
 23 22  1  0  0  0  0
 24 26  2  0  0  0  0
 25 24  1  0  0  0  0
 26  6  1  0  0  0  0
 26 27  1  0  0  0  0
 27  7  1  0  0  0  0
 28 27  2  0  0  0  0
 28 29  1  0  0  0  0
 30  5  1  0  0  0  0
 30 32  1  0  0  0  0
 31 30  1  0  0  0  0
 33 30  1  0  0  0  0
 33 36  1  0  0  0  0
 34 33  1  0  0  0  0
 35 33  1  0  0  0  0
 37 39  1  0  0  0  0
 37  6  1  0  0  0  0
 37 38  1  0  0  0  0
 40 37  1  0  0  0  0
M  CHG  2   3  -1   4  -1
M  END
