1,2,3
 OpenBabel05122313063D

 33 35  0  0  0  0  0  0  0  0999 V2000
    1.2825   -2.0898    0.0003 O   0  5  0  0  0  0  0  0  0  0  0  0
   -2.4788   -1.1483    0.0001 O   0  5  0  0  0  0  0  0  0  0  0  0
   -0.2899    0.0977    0.0002 N   0  0  0  0  0  2  0  0  0  0  0  0
   -1.3984    0.8990    0.0002 N   0  0  0  0  0  0  0  0  0  0  0  0
   -6.3411    2.1078   -0.0000 N   0  0  0  0  0  0  0  0  0  0  0  0
    2.2847   -1.2800    0.0002 C   0  0  0  0  0  0  0  0  0  0  0  0
    3.6099   -1.8550    0.0002 C   0  0  0  0  0  0  0  0  0  0  0  0
    3.6610   -2.9538    0.0003 H   0  0  0  0  0  0  0  0  0  0  0  0
    4.7390   -1.0714    0.0001 C   0  0  0  0  0  0  0  0  0  0  0  0
    5.7388   -1.5362    0.0001 H   0  0  0  0  0  0  0  0  0  0  0  0
    4.6551    0.3589    0.0000 C   0  0  0  0  0  0  0  0  0  0  0  0
    5.8274    1.1615   -0.0001 C   0  0  0  0  0  0  0  0  0  0  0  0
    6.8053    0.6523   -0.0000 H   0  0  0  0  0  0  0  0  0  0  0  0
    5.7566    2.5498   -0.0002 C   0  0  0  0  0  0  0  0  0  0  0  0
    6.6739    3.1584   -0.0002 H   0  0  0  0  0  0  0  0  0  0  0  0
    4.4841    3.1708   -0.0002 C   0  0  0  0  0  0  0  0  0  0  0  0
    4.4098    4.2698   -0.0003 H   0  0  0  0  0  0  0  0  0  0  0  0
    3.3204    2.4082   -0.0001 C   0  0  0  0  0  0  0  0  0  0  0  0
    2.3532    2.9296   -0.0001 H   0  0  0  0  0  0  0  0  0  0  0  0
    3.3526    0.9816    0.0000 C   0  0  0  0  0  0  0  0  0  0  0  0
    2.1604    0.1529    0.0001 C   0  0  0  0  0  0  0  0  0  0  0  0
    0.8593    0.7457    0.0001 C   0  0  0  0  0  3  0  0  0  0  0  0
    0.7619    1.8466    0.0001 H   0  0  0  0  0  0  0  0  0  0  0  0
   -2.4903    0.1420    0.0001 C   0  0  0  0  0  0  0  0  0  0  0  0
   -3.8051    0.8349    0.0001 C   0  0  0  0  0  0  0  0  0  0  0  0
   -3.9166    2.2407    0.0001 C   0  0  0  0  0  0  0  0  0  0  0  0
   -3.0011    2.8493    0.0002 H   0  0  0  0  0  0  0  0  0  0  0  0
   -5.1941    2.8143    0.0001 C   0  0  0  0  0  0  0  0  0  0  0  0
   -5.3007    3.9153    0.0001 H   0  0  0  0  0  0  0  0  0  0  0  0
   -6.2229    0.7680   -0.0001 C   0  0  0  0  0  0  0  0  0  0  0  0
   -7.1693    0.1954   -0.0002 H   0  0  0  0  0  0  0  0  0  0  0  0
   -4.9981    0.0856   -0.0000 C   0  0  0  0  0  0  0  0  0  0  0  0
   -4.9365   -1.0123   -0.0001 H   0  0  0  0  0  0  0  0  0  0  0  0
  2 24  1  0  0  0  0
  3  4  1  0  0  0  0
  5 28  1  0  0  0  0
  6  7  1  0  0  0  0
  6  1  1  0  0  0  0
  7  8  1  0  0  0  0
  9 10  1  0  0  0  0
  9  7  2  0  0  0  0
 11  9  1  0  0  0  0
 12 13  1  0  0  0  0
 12 11  2  0  0  0  0
 14 12  1  0  0  0  0
 15 14  1  0  0  0  0
 16 14  2  0  0  0  0
 16 18  1  0  0  0  0
 17 16  1  0  0  0  0
 18 20  2  0  0  0  0
 19 18  1  0  0  0  0
 20 11  1  0  0  0  0
 20 21  1  0  0  0  0
 21 22  1  0  0  0  0
 21  6  2  0  0  0  0
 22 23  1  0  0  0  0
 22  3  1  0  0  0  0
 24  4  2  0  0  0  0
 25 26  1  0  0  0  0
 25 24  1  0  0  0  0
 26 27  1  0  0  0  0
 28 29  1  0  0  0  0
 28 26  2  0  0  0  0
 30  5  2  0  0  0  0
 30 32  1  0  0  0  0
 31 30  1  0  0  0  0
 32 25  2  0  0  0  0
 33 32  1  0  0  0  0
M  CHG  2   1  -1   2  -1
M  END
