24,27,29
 OpenBabel05122313063D

 29 30  0  0  0  0  0  0  0  0999 V2000
   -3.9729   -4.0868    1.4855 C   0  0  0  0  0  0  0  0  0  0  0  0
   -3.6049   -4.1393    2.5275 H   0  0  0  0  0  0  0  0  0  0  0  0
   -5.0508   -4.3337    1.4605 H   0  0  0  0  0  0  0  0  0  0  0  0
   -3.4203   -4.8181    0.8662 H   0  0  0  0  0  0  0  0  0  0  0  0
   -3.7519   -2.6921    0.9216 C   0  0  0  0  0  0  0  0  0  0  0  0
   -4.4756   -1.6020    1.7199 C   0  0  0  0  0  0  0  0  0  0  0  0
   -4.1429   -1.6206    2.7754 H   0  0  0  0  0  0  0  0  0  0  0  0
   -4.2571   -0.5997    1.3035 H   0  0  0  0  0  0  0  0  0  0  0  0
   -5.5682   -1.7732    1.6758 H   0  0  0  0  0  0  0  0  0  0  0  0
   -1.8617   -1.3941    0.2866 C   0  0  0  0  0  0  0  0  0  0  0  0
   -2.6349   -0.9266   -0.8271 C   0  0  0  0  0  0  0  0  0  0  0  0
   -3.8145   -1.6811   -1.2771 C   0  0  0  0  0  0  0  0  0  0  0  0
   -1.0238    1.9860   -2.1490 C   0  0  0  0  0  0  0  0  0  0  0  0
    0.1225    2.7084   -1.6890 C   0  0  0  0  0  0  0  0  0  0  0  0
    0.4870    3.8874   -2.3969 C   0  0  0  0  0  0  0  0  0  0  0  0
    1.3647    4.4518   -2.0492 H   0  0  0  0  0  0  0  0  0  0  0  0
   -0.2607    4.2968   -3.5044 C   0  0  0  0  0  0  0  0  0  0  0  0
    0.0380    5.2098   -4.0447 H   0  0  0  0  0  0  0  0  0  0  0  0
   -1.3896    3.5658   -3.9440 C   0  0  0  0  0  0  0  0  0  0  0  0
   -1.9634    3.9081   -4.8186 H   0  0  0  0  0  0  0  0  0  0  0  0
   -1.7743    2.4068   -3.2619 C   0  0  0  0  0  0  0  0  0  0  0  0
   -2.6452    1.8049   -3.5589 H   0  0  0  0  0  0  0  0  0  0  0  0
   -2.3188    0.1483   -1.6030 N   0  0  0  0  0  2  0  0  0  0  0  0
   -1.2938    0.8580   -1.3574 N   0  0  0  0  0  2  0  0  0  0  0  0
   -4.2038   -2.7225   -0.4254 O   0  0  0  0  0  0  0  0  0  0  0  0
   -4.4398   -1.5233   -2.3047 O   0  0  0  0  0  0  0  0  0  0  0  0
    0.7900    2.2673   -0.6489 O   0  5  0  0  0  0  0  0  0  0  0  0
   -2.3288   -2.4695    0.9833 O   0  0  0  0  0  0  0  0  0  0  0  0
   -0.7600   -0.9512    0.7029 O   0  5  0  0  0  0  0  0  0  0  0  0
  1  2  1  0  0  0  0
  3  1  1  0  0  0  0
  4  1  1  0  0  0  0
  5 28  1  0  0  0  0
  5  1  1  0  0  0  0
  5  6  1  0  0  0  0
  6  7  1  0  0  0  0
  8  6  1  0  0  0  0
  9  6  1  0  0  0  0
 10 29  1  0  0  0  0
 10 28  1  0  0  0  0
 11 10  2  0  0  0  0
 12 11  1  0  0  0  0
 12 25  1  0  0  0  0
 13 14  1  0  0  0  0
 13 24  1  0  0  0  0
 14 27  1  0  0  0  0
 15 16  1  0  0  0  0
 15 14  2  0  0  0  0
 17 15  1  0  0  0  0
 18 17  1  0  0  0  0
 19 17  2  0  0  0  0
 19 21  1  0  0  0  0
 20 19  1  0  0  0  0
 21 13  2  0  0  0  0
 22 21  1  0  0  0  0
 23 24  1  0  0  0  0
 23 11  1  0  0  0  0
 25  5  1  0  0  0  0
 26 12  2  0  0  0  0
M  CHG  2  27  -1  29  -1
M  END
