1,2,4
 OpenBabel05122313063D

 25 25  0  0  0  0  0  0  0  0999 V2000
   -3.1541   -0.0162   -0.1661 O   0  0  0  0  0  1  0  0  0  0  0  0
    0.5720   -0.6311   -0.0677 O   0  5  0  0  0  0  0  0  0  0  0  0
    3.0019   -1.5824   -0.1617 O   0  0  0  0  0  0  0  0  0  0  0  0
   -1.1003    1.5121    0.1599 N   0  0  0  0  0  2  0  0  0  0  0  0
   -3.4241    1.3487   -0.3576 C   0  0  0  0  0  0  0  0  0  0  0  0
   -4.4542    1.5810   -0.0093 H   0  0  0  0  0  0  0  0  0  0  0  0
   -3.3503    1.6135   -1.4405 H   0  0  0  0  0  0  0  0  0  0  0  0
   -2.3840    2.1359    0.4451 C   0  0  0  0  0  0  0  0  0  0  0  0
   -2.3871    3.2246    0.2152 H   0  0  0  0  0  0  0  0  0  0  0  0
   -2.5994    2.0030    1.5285 H   0  0  0  0  0  0  0  0  0  0  0  0
   -0.0002    2.2029    0.1660 C   0  0  0  0  0  3  0  0  0  0  0  0
   -0.0584    3.2983    0.3500 H   0  0  0  0  0  0  0  0  0  0  0  0
    1.3271    1.6657   -0.0102 C   0  0  0  0  0  0  0  0  0  0  0  0
    1.5412    0.2565   -0.0848 C   0  0  0  0  0  0  0  0  0  0  0  0
    2.8920   -0.2320   -0.1388 C   0  0  0  0  0  0  0  0  0  0  0  0
    3.9608    0.6725   -0.1674 C   0  0  0  0  0  0  0  0  0  0  0  0
    4.9924    0.3004   -0.2298 H   0  0  0  0  0  0  0  0  0  0  0  0
    3.7317    2.0677   -0.1152 C   0  0  0  0  0  0  0  0  0  0  0  0
    4.5887    2.7561   -0.1395 H   0  0  0  0  0  0  0  0  0  0  0  0
    2.4365    2.5582   -0.0267 C   0  0  0  0  0  0  0  0  0  0  0  0
    2.2473    3.6411    0.0315 H   0  0  0  0  0  0  0  0  0  0  0  0
    4.2962   -2.1456   -0.2495 C   0  0  0  0  0  0  0  0  0  0  0  0
    4.8194   -1.8340   -1.1815 H   0  0  0  0  0  0  0  0  0  0  0  0
    4.1589   -3.2423   -0.2633 H   0  0  0  0  0  0  0  0  0  0  0  0
    4.9293   -1.8689    0.6240 H   0  0  0  0  0  0  0  0  0  0  0  0
  3 15  1  0  0  0  0
  4 11  1  0  0  0  0
  4  8  1  0  0  0  0
  5  1  1  0  0  0  0
  5  6  1  0  0  0  0
  5  8  1  0  0  0  0
  7  5  1  0  0  0  0
  8 10  1  0  0  0  0
  9  8  1  0  0  0  0
 11 12  1  0  0  0  0
 13 11  1  0  0  0  0
 14  2  1  0  0  0  0
 14 13  2  0  0  0  0
 15 14  1  0  0  0  0
 16 15  2  0  0  0  0
 16 18  1  0  0  0  0
 17 16  1  0  0  0  0
 18 20  2  0  0  0  0
 19 18  1  0  0  0  0
 20 13  1  0  0  0  0
 20 21  1  0  0  0  0
 22  3  1  0  0  0  0
 22 25  1  0  0  0  0
 23 22  1  0  0  0  0
 24 22  1  0  0  0  0
M  CHG  1   2  -1
M  END
