2,3,4
 OpenBabel05122313063D

 37 39  0  0  1  0  0  0  0  0999 V2000
   -1.0420   -1.7123   -0.0000 N   0  0  0  0  0  0  0  0  0  0  0  0
    0.1181   -0.9877   -0.0001 N   0  0  0  0  0  2  0  0  0  0  0  0
   -1.8922    0.4251   -0.0002 O   0  5  0  0  0  0  0  0  0  0  0  0
    1.7173    1.1873   -0.0003 O   0  5  0  0  0  0  0  0  0  0  0  0
   -2.0673   -0.8784   -0.0001 C   0  0  0  0  0  0  0  0  0  0  0  0
   -3.4452   -1.4082   -0.0001 C   0  0  0  0  0  0  0  0  0  0  0  0
   -3.6835   -2.8017    0.0002 C   0  0  0  0  0  0  0  0  0  0  0  0
   -2.8194   -3.4810    0.0006 H   0  0  0  0  0  0  0  0  0  0  0  0
   -4.9900   -3.2943    0.0004 C   0  0  0  0  0  0  0  0  0  0  0  0
   -5.1575   -4.3835    0.0009 H   0  0  0  0  0  0  0  0  0  0  0  0
   -6.1035   -2.4238    0.0002 C   0  0  0  0  0  0  0  0  0  0  0  0
   -5.8555   -1.0368    0.0001 C   0  0  0  0  0  0  0  0  0  0  0  0
   -6.7072   -0.3381    0.0004 H   0  0  0  0  0  0  0  0  0  0  0  0
   -4.5489   -0.5320   -0.0001 C   0  0  0  0  0  0  0  0  0  0  0  0
   -4.3664    0.5512    0.0000 H   0  0  0  0  0  0  0  0  0  0  0  0
   -7.5072   -2.9728   -0.0017 C   0  0  0  0  0  0  0  0  0  0  0  0
   -7.6958   -3.5930   -0.9033 H   0  0  0  0  0  0  0  0  0  0  0  0
   -8.2638   -2.1648    0.0177 H   0  0  0  0  0  0  0  0  0  0  0  0
   -7.6854   -3.6275    0.8771 H   0  0  0  0  0  0  0  0  0  0  0  0
    1.2586   -1.6580    0.0000 C   0  0  0  0  0  0  0  0  0  0  0  0
    1.1302   -2.7516    0.0002 H   0  0  0  0  0  0  0  0  0  0  0  0
    2.5634   -1.0827   -0.0000 C   0  0  0  0  0  0  0  0  0  0  0  0
    2.7228    0.3378   -0.0001 C   0  0  0  0  0  0  0  0  0  0  0  0
    4.0436    0.8964    0.0000 C   0  0  0  0  0  0  0  0  0  0  0  0
    4.1319    1.9933   -0.0000 H   0  0  0  0  0  0  0  0  0  0  0  0
    5.1615    0.0934    0.0002 C   0  0  0  0  0  0  0  0  0  0  0  0
    6.1658    0.5454    0.0003 H   0  0  0  0  0  0  0  0  0  0  0  0
    5.0529   -1.3330    0.0002 C   0  0  0  0  0  0  0  0  0  0  0  0
    3.7446   -1.9350    0.0001 C   0  0  2  0  0  3  0  0  0  0  0  0
    3.6810   -3.3574   -0.0000 C   0  0  0  0  0  0  0  0  0  0  0  0
    2.7065   -3.8646   -0.0002 H   0  0  0  0  0  0  0  0  0  0  0  0
    4.8319   -4.1392    0.0001 C   0  0  0  0  0  0  0  0  0  0  0  0
    4.7399   -5.2361    0.0000 H   0  0  0  0  0  0  0  0  0  0  0  0
    6.1137   -3.5396    0.0003 C   0  0  0  0  0  0  0  0  0  0  0  0
    7.0186   -4.1653    0.0004 H   0  0  0  0  0  0  0  0  0  0  0  0
    6.2135   -2.1548    0.0003 C   0  0  0  0  0  0  0  0  0  0  0  0
    7.2002   -1.6654    0.0004 H   0  0  0  0  0  0  0  0  0  0  0  0
  2  1  1  0  0  0  0
  2 20  1  0  0  0  0
  3  5  1  0  0  0  0
  4 23  1  0  0  0  0
  5  6  1  0  0  0  0
  5  1  2  0  0  0  0
  6  7  1  0  0  0  0
  7  9  2  0  0  0  0
  7  8  1  0  0  0  0
  9 10  1  0  0  0  0
 11  9  1  0  0  0  0
 12 11  2  0  0  0  0
 12 13  1  0  0  0  0
 14  6  2  0  0  0  0
 14 15  1  0  0  0  0
 14 12  1  0  0  0  0
 16 11  1  0  0  0  0
 16 18  1  0  0  0  0
 16 19  1  0  0  0  0
 17 16  1  0  0  0  0
 20 21  1  0  0  0  0
 22 20  2  0  0  0  0
 23 22  1  0  0  0  0
 23 24  2  0  0  0  0
 24 26  1  0  0  0  0
 25 24  1  0  0  0  0
 26 28  2  0  0  0  0
 26 27  1  0  0  0  0
 28 36  1  0  0  0  0
 29 22  1  6  0  0  0
 29 28  1  0  0  0  0
 30 29  1  0  0  0  0
 30 32  2  0  0  0  0
 31 30  1  0  0  0  0
 32 34  1  0  0  0  0
 33 32  1  0  0  0  0
 34 36  2  0  0  0  0
 34 35  1  0  0  0  0
 36 37  1  0  0  0  0
M  CHG  2   3  -1   4  -1
M  END
