27,30,31
 OpenBabel05122313063D

 31 32  0  0  1  0  0  0  0  0999 V2000
    5.4987   -1.1767   -0.0813 C   0  0  0  0  0  0  0  0  0  0  0  0
    4.6620   -2.2373    0.3033 C   0  0  0  0  0  0  0  0  0  0  0  0
    5.1144   -3.2165    0.5082 H   0  0  0  0  0  0  0  0  0  0  0  0
    3.2913   -2.0086    0.4266 C   0  0  0  0  0  0  0  0  0  0  0  0
    2.6461   -2.8296    0.7756 H   0  0  0  0  0  0  0  0  0  0  0  0
    2.7439   -0.7263    0.1575 C   0  0  0  0  0  0  0  0  0  0  0  0
    3.6173    0.3291   -0.2072 C   0  0  0  0  0  0  0  0  0  0  0  0
    3.1844    1.3220   -0.3940 H   0  0  0  0  0  0  0  0  0  0  0  0
    4.9865    0.1091   -0.3370 C   0  0  0  0  0  0  0  0  0  0  0  0
    5.6844    0.9030   -0.6336 H   0  0  0  0  0  0  0  0  0  0  0  0
    1.3071   -0.4296    0.2834 C   0  0  2  0  0  3  0  0  0  0  0  0
   -1.7720   -2.1795    0.1299 C   0  0  0  0  0  0  0  0  0  0  0  0
   -1.3879   -3.2090    0.3023 H   0  0  0  0  0  0  0  0  0  0  0  0
   -3.1872   -2.0397    0.0128 C   0  0  0  0  0  0  0  0  0  0  0  0
   -3.8677   -0.7478   -0.1540 C   0  0  2  0  0  3  0  0  0  0  0  0
   -5.3055   -0.7831   -0.1611 C   0  0  0  0  0  0  0  0  0  0  0  0
   -5.8447    0.1672   -0.2721 H   0  0  0  0  0  0  0  0  0  0  0  0
   -5.9951   -1.9771   -0.0643 C   0  0  0  0  0  0  0  0  0  0  0  0
   -5.3481   -3.2300    0.0744 C   0  0  0  0  0  0  0  0  0  0  0  0
   -5.9450   -4.1485    0.1492 H   0  0  0  0  0  0  0  0  0  0  0  0
   -3.9638   -3.2334    0.1157 C   0  0  0  0  0  0  0  0  0  0  0  0
   -3.4307   -4.1910    0.2338 H   0  0  0  0  0  0  0  0  0  0  0  0
   -7.3425   -1.9665   -0.1011 F   0  0  0  0  0  0  0  0  0  0  0  0
    6.9431   -1.4148   -0.2106 N   0  0  0  0  0  0  0  0  0  0  0  0
    0.4308   -1.4876    0.1614 N   0  0  0  0  0  0  0  0  0  0  0  0
    0.7661   -2.4047   -0.1583 H   0  0  0  0  0  0  0  0  0  0  0  0
   -0.8977   -1.1946    0.0720 N   0  0  0  0  0  2  0  0  0  0  0  0
    7.3572   -2.5570    0.0195 O   0  0  0  0  0  0  0  0  0  0  0  0
    7.6505   -0.4575   -0.5450 O   0  0  0  0  0  0  0  0  0  0  0  0
    0.8557    0.7282    0.4605 O   0  0  0  0  0  1  0  0  0  0  0  0
   -3.2717    0.3811   -0.2965 O   0  0  0  0  0  1  0  0  0  0  0  0
  1  2  1  0  0  0  0
  2  4  2  0  0  0  0
  2  3  1  0  0  0  0
  4  5  1  0  0  0  0
  6 11  1  0  0  0  0
  6  4  1  0  0  0  0
  7  6  2  0  0  0  0
  8  7  1  0  0  0  0
  9  7  1  0  0  0  0
  9  1  2  0  0  0  0
 10  9  1  0  0  0  0
 11 30  1  6  0  0  0
 12 13  1  0  0  0  0
 14 21  1  0  0  0  0
 14 12  2  0  0  0  0
 15 31  1  6  0  0  0
 15 14  1  0  0  0  0
 16 15  1  0  0  0  0
 16 18  2  0  0  0  0
 17 16  1  0  0  0  0
 18 19  1  0  0  0  0
 19 21  2  0  0  0  0
 19 20  1  0  0  0  0
 21 22  1  0  0  0  0
 23 18  1  0  0  0  0
 24  1  1  0  0  0  0
 24 28  2  0  0  0  0
 25 11  1  0  0  0  0
 26 25  1  0  0  0  0
 27 12  1  0  0  0  0
 27 25  1  0  0  0  0
 29 24  2  0  0  0  0
M  END
