1,2,3
 OpenBabel05122313063D

 37 36  0  0  1  0  0  0  0  0999 V2000
    1.5715    0.7125    1.2396 O   0  5  0  0  0  0  0  0  0  0  0  0
   -1.5717    0.7125   -1.2397 O   0  5  0  0  0  0  0  0  0  0  0  0
    0.9172   -1.9744    1.1756 N   0  0  0  0  0  2  0  0  0  0  0  0
   -0.9173   -1.9745   -1.1760 N   0  0  0  0  0  0  0  0  0  0  0  0
    4.9572    0.9347    2.2256 F   0  0  0  0  0  0  0  0  0  0  0  0
    3.7795    2.3579    1.0593 F   0  0  0  0  0  0  0  0  0  0  0  0
    3.2743    1.9875    3.1442 F   0  0  0  0  0  0  0  0  0  0  0  0
   -4.9576    0.9345   -2.2250 F   0  0  0  0  0  0  0  0  0  0  0  0
   -3.7795    2.3580   -1.0594 F   0  0  0  0  0  0  0  0  0  0  0  0
   -3.2748    1.9869   -3.1444 F   0  0  0  0  0  0  0  0  0  0  0  0
    2.7339    0.2783    1.5945 C   0  0  0  0  0  0  0  0  0  0  0  0
    3.1007   -1.0432    1.7012 C   0  0  0  0  0  0  0  0  0  0  0  0
    2.1566   -2.1282    1.6009 C   0  0  1  0  0  3  0  0  0  0  0  0
    2.6765   -3.4647    2.0981 C   0  0  0  0  0  0  0  0  0  0  0  0
    0.0175   -3.1274    1.2757 C   0  0  0  0  0  0  0  0  0  0  0  0
    3.7051    1.3892    2.0069 C   0  0  0  0  0  0  0  0  0  0  0  0
    0.0006   -3.9818   -0.0006 C   0  0  0  0  0  0  0  0  0  0  0  0
   -0.0175   -3.1274   -1.2768 C   0  0  0  0  0  0  0  0  0  0  0  0
   -2.1570   -2.1283   -1.6005 C   0  0  0  0  0  0  0  0  0  0  0  0
   -2.6772   -3.4649   -2.0974 C   0  0  0  0  0  0  0  0  0  0  0  0
   -3.1011   -1.0434   -1.7003 C   0  0  0  0  0  0  0  0  0  0  0  0
   -2.7342    0.2782   -1.5942 C   0  0  0  0  0  0  0  0  0  0  0  0
   -3.7054    1.3890   -2.0067 C   0  0  0  0  0  0  0  0  0  0  0  0
    4.1259   -1.2770    2.0086 H   0  0  0  0  0  0  0  0  0  0  0  0
    2.2370   -3.7176    3.0859 H   0  0  0  0  0  0  0  0  0  0  0  0
    3.7738   -3.4332    2.2191 H   0  0  0  0  0  0  0  0  0  0  0  0
    2.4269   -4.2894    1.4044 H   0  0  0  0  0  0  0  0  0  0  0  0
    0.2568   -3.7640    2.1516 H   0  0  0  0  0  0  0  0  0  0  0  0
   -0.9942   -2.7198    1.4437 H   0  0  0  0  0  0  0  0  0  0  0  0
    0.8884   -4.6472   -0.0558 H   0  0  0  0  0  0  0  0  0  0  0  0
   -0.8864   -4.6482    0.0547 H   0  0  0  0  0  0  0  0  0  0  0  0
    0.9940   -2.7195   -1.4456 H   0  0  0  0  0  0  0  0  0  0  0  0
   -0.2573   -3.7639   -2.1526 H   0  0  0  0  0  0  0  0  0  0  0  0
   -2.2388   -3.7174   -3.0858 H   0  0  0  0  0  0  0  0  0  0  0  0
   -3.7746   -3.4335   -2.2171 H   0  0  0  0  0  0  0  0  0  0  0  0
   -2.4266   -4.2897   -1.4043 H   0  0  0  0  0  0  0  0  0  0  0  0
   -4.1265   -1.2772   -2.0073 H   0  0  0  0  0  0  0  0  0  0  0  0
  1 11  1  0  0  0  0
  3 15  1  0  0  0  0
  6 16  1  0  0  0  0
  8 23  1  0  0  0  0
 10 23  1  0  0  0  0
 11 12  2  0  0  0  0
 11 16  1  0  0  0  0
 12 24  1  0  0  0  0
 13  3  1  1  0  0  0
 13 12  1  0  0  0  0
 13 14  1  0  0  0  0
 14 26  1  0  0  0  0
 14 25  1  0  0  0  0
 15 29  1  0  0  0  0
 15 28  1  0  0  0  0
 16  5  1  0  0  0  0
 16  7  1  0  0  0  0
 17 31  1  0  0  0  0
 17 15  1  0  0  0  0
 18  4  1  0  0  0  0
 18 17  1  0  0  0  0
 19  4  2  0  0  0  0
 20 19  1  0  0  0  0
 20 36  1  0  0  0  0
 21 19  1  0  0  0  0
 21 22  2  0  0  0  0
 22  2  1  0  0  0  0
 23 22  1  0  0  0  0
 23  9  1  0  0  0  0
 27 14  1  0  0  0  0
 30 17  1  0  0  0  0
 32 18  1  0  0  0  0
 33 18  1  0  0  0  0
 34 20  1  0  0  0  0
 35 20  1  0  0  0  0
 37 21  1  0  0  0  0
M  CHG  2   1  -1   2  -1
M  END
