17,25,36
 OpenBabel05122313063D

 36 37  0  0  1  0  0  0  0  0999 V2000
   -7.7452   -1.1578   -0.2609 C   0  0  0  0  0  0  0  0  0  0  0  0
   -7.5903   -1.5930   -1.2739 H   0  0  0  0  0  0  0  0  0  0  0  0
   -8.7620   -0.7267   -0.2077 H   0  0  0  0  0  0  0  0  0  0  0  0
   -7.6580   -1.9725    0.4928 H   0  0  0  0  0  0  0  0  0  0  0  0
   -6.8456   -0.0977    0.0017 O   0  0  0  0  0  0  0  0  0  0  0  0
   -5.5123   -0.3657    0.0058 C   0  0  0  0  0  0  0  0  0  0  0  0
   -4.6587    0.7261    0.2822 C   0  0  0  0  0  0  0  0  0  0  0  0
   -5.1164    1.7061    0.4813 H   0  0  0  0  0  0  0  0  0  0  0  0
   -3.2774    0.5494    0.3063 C   0  0  0  0  0  0  0  0  0  0  0  0
   -2.6145    1.3969    0.5307 H   0  0  0  0  0  0  0  0  0  0  0  0
   -2.6928   -0.7187    0.0642 C   0  0  0  0  0  0  0  0  0  0  0  0
   -3.5574   -1.7973   -0.2156 C   0  0  0  0  0  0  0  0  0  0  0  0
   -3.1373   -2.7877   -0.4439 H   0  0  0  0  0  0  0  0  0  0  0  0
   -4.9489   -1.6346   -0.2466 C   0  0  0  0  0  0  0  0  0  0  0  0
   -5.5844   -2.4994   -0.4792 H   0  0  0  0  0  0  0  0  0  0  0  0
   -1.2157   -0.8628    0.1002 C   0  0  1  0  0  3  0  0  0  0  0  0
   -0.5516    0.2460   -0.0491 O   0  0  0  0  0  1  0  0  0  0  0  0
   -0.6048   -2.1029    0.3255 C   0  0  0  0  0  0  0  0  0  0  0  0
   -1.2546   -2.9552    0.5578 H   0  0  0  0  0  0  0  0  0  0  0  0
    0.7902   -2.3564    0.3204 C   0  0  0  0  0  0  0  0  0  0  0  0
    1.1979   -3.7717    0.6665 C   0  0  0  0  0  0  0  0  0  0  0  0
    1.4092   -4.3785   -0.2385 H   0  0  0  0  0  0  0  0  0  0  0  0
    0.3751   -4.2699    1.2115 H   0  0  0  0  0  0  0  0  0  0  0  0
    2.1074   -3.7883    1.2973 H   0  0  0  0  0  0  0  0  0  0  0  0
    1.6967   -1.3984    0.0584 N   0  0  0  0  0  2  0  0  0  0  0  0
    3.0907   -1.5846   -0.1045 C   0  0  0  0  0  0  0  0  0  0  0  0
    3.8172   -2.7668   -0.3788 C   0  0  0  0  0  0  0  0  0  0  0  0
    3.3088   -3.7209   -0.5471 H   0  0  0  0  0  0  0  0  0  0  0  0
    5.2156   -2.7261   -0.4814 C   0  0  0  0  0  0  0  0  0  0  0  0
    5.7661   -3.6535   -0.6980 H   0  0  0  0  0  0  0  0  0  0  0  0
    5.9087   -1.5116   -0.3202 C   0  0  0  0  0  0  0  0  0  0  0  0
    7.0070   -1.4909   -0.3941 H   0  0  0  0  0  0  0  0  0  0  0  0
    5.2075   -0.3217   -0.0970 C   0  0  0  0  0  0  0  0  0  0  0  0
    5.7207    0.6471   -0.0083 H   0  0  0  0  0  0  0  0  0  0  0  0
    3.7966   -0.3434   -0.0278 C   0  0  0  0  0  0  0  0  0  0  0  0
    3.0757    0.7621    0.0810 O   0  5  0  0  0  0  0  0  0  0  0  0
  1  3  1  0  0  0  0
  1  5  1  0  0  0  0
  1  4  1  0  0  0  0
  2  1  1  0  0  0  0
  5  6  1  0  0  0  0
  6  7  1  0  0  0  0
  7  9  2  0  0  0  0
  7  8  1  0  0  0  0
  9 10  1  0  0  0  0
 11 16  1  0  0  0  0
 11  9  1  0  0  0  0
 12 11  2  0  0  0  0
 13 12  1  0  0  0  0
 14 12  1  0  0  0  0
 14  6  2  0  0  0  0
 15 14  1  0  0  0  0
 16 17  1  1  0  0  0
 16 18  1  0  0  0  0
 18 19  1  0  0  0  0
 20 18  2  0  0  0  0
 20 21  1  0  0  0  0
 21 23  1  0  0  0  0
 21 24  1  0  0  0  0
 22 21  1  0  0  0  0
 25 20  1  0  0  0  0
 26 35  1  0  0  0  0
 26 25  1  0  0  0  0
 27 26  2  0  0  0  0
 28 27  1  0  0  0  0
 29 27  1  0  0  0  0
 29 31  2  0  0  0  0
 30 29  1  0  0  0  0
 31 33  1  0  0  0  0
 32 31  1  0  0  0  0
 33 35  2  0  0  0  0
 33 34  1  0  0  0  0
 35 36  1  0  0  0  0
M  CHG  1  36  -1
M  END
