1,4,5
 OpenBabel05122313063D

 39 40  0  0  1  0  0  0  0  0999 V2000
   -1.2317   -0.7640   -0.0061 N   0  0  0  0  0  2  0  0  0  0  0  0
    0.0731   -1.1311   -0.0208 N   0  0  0  0  0  0  0  0  0  0  0  0
    6.5325   -0.5193   -0.0585 N   0  0  0  0  0  0  0  0  0  0  0  0
   -3.1513    0.9206   -0.6533 O   0  5  0  0  0  0  0  0  0  0  0  0
    0.3240    1.1486   -0.1542 O   0  5  0  0  0  0  0  0  0  0  0  0
   -3.5763   -1.3656   -0.0182 C   0  0  0  0  0  0  0  0  0  0  0  0
   -4.0178   -0.0569   -0.3996 C   0  0  0  0  0  0  0  0  0  0  0  0
   -5.3978    0.2122   -0.5484 C   0  0  0  0  0  0  0  0  0  0  0  0
   -5.6882    1.2272   -0.8547 H   0  0  0  0  0  0  0  0  0  0  0  0
   -6.3456   -0.7824   -0.3026 C   0  0  0  0  0  0  0  0  0  0  0  0
   -7.4165   -0.5540   -0.4136 H   0  0  0  0  0  0  0  0  0  0  0  0
   -5.9324   -2.0708    0.0907 C   0  0  0  0  0  0  0  0  0  0  0  0
   -6.6761   -2.8549    0.2946 H   0  0  0  0  0  0  0  0  0  0  0  0
   -4.5722   -2.3513    0.2194 C   0  0  0  0  0  0  0  0  0  0  0  0
   -4.2628   -3.3607    0.5228 H   0  0  0  0  0  0  0  0  0  0  0  0
   -2.1600   -1.7100    0.0490 C   0  0  1  0  0  3  0  0  0  0  0  0
   -1.7561   -3.1547    0.1726 C   0  0  0  0  0  0  0  0  0  0  0  0
   -0.6627   -3.2413    0.0616 H   0  0  0  0  0  0  0  0  0  0  0  0
   -2.2651   -3.7760   -0.5900 H   0  0  0  0  0  0  0  0  0  0  0  0
   -2.0440   -3.5518    1.1687 H   0  0  0  0  0  0  0  0  0  0  0  0
    0.8466   -0.0567   -0.0747 C   0  0  0  0  0  0  0  0  0  0  0  0
    2.3059   -0.1860   -0.0700 C   0  0  0  0  0  0  0  0  0  0  0  0
    3.1260    0.9614   -0.1490 C   0  0  0  0  0  0  0  0  0  0  0  0
    2.6440    1.9474   -0.2141 H   0  0  0  0  0  0  0  0  0  0  0  0
    4.5154    0.8608   -0.1454 C   0  0  0  0  0  0  0  0  0  0  0  0
    5.1114    1.7799   -0.2084 H   0  0  0  0  0  0  0  0  0  0  0  0
    5.1574   -0.4098   -0.0622 C   0  0  0  0  0  0  0  0  0  0  0  0
    4.3227   -1.5652    0.0175 C   0  0  0  0  0  0  0  0  0  0  0  0
    4.7677   -2.5660    0.0844 H   0  0  0  0  0  0  0  0  0  0  0  0
    2.9360   -1.4491    0.0136 C   0  0  0  0  0  0  0  0  0  0  0  0
    2.3064   -2.3480    0.0766 H   0  0  0  0  0  0  0  0  0  0  0  0
    7.1580   -1.8240    0.0269 C   0  0  0  0  0  0  0  0  0  0  0  0
    6.8855   -2.3594    0.9643 H   0  0  0  0  0  0  0  0  0  0  0  0
    8.2562   -1.7050    0.0129 H   0  0  0  0  0  0  0  0  0  0  0  0
    6.8760   -2.4805   -0.8270 H   0  0  0  0  0  0  0  0  0  0  0  0
    7.3557    0.6710   -0.1380 C   0  0  0  0  0  0  0  0  0  0  0  0
    7.1741    1.2442   -1.0751 H   0  0  0  0  0  0  0  0  0  0  0  0
    8.4215    0.3812   -0.1202 H   0  0  0  0  0  0  0  0  0  0  0  0
    7.1763    1.3622    0.7164 H   0  0  0  0  0  0  0  0  0  0  0  0
  2  1  1  0  0  0  0
  3 32  1  0  0  0  0
  4  7  1  0  0  0  0
  5 21  1  0  0  0  0
  6 16  1  0  0  0  0
  6 14  1  0  0  0  0
  7  6  2  0  0  0  0
  8  7  1  0  0  0  0
  8 10  2  0  0  0  0
  9  8  1  0  0  0  0
 10 12  1  0  0  0  0
 11 10  1  0  0  0  0
 12 14  2  0  0  0  0
 12 13  1  0  0  0  0
 14 15  1  0  0  0  0
 16  1  1  6  0  0  0
 16 17  1  0  0  0  0
 17 20  1  0  0  0  0
 18 17  1  0  0  0  0
 19 17  1  0  0  0  0
 21 22  1  0  0  0  0
 21  2  2  0  0  0  0
 22 30  1  0  0  0  0
 23 25  1  0  0  0  0
 23 22  2  0  0  0  0
 24 23  1  0  0  0  0
 25 27  2  0  0  0  0
 26 25  1  0  0  0  0
 27  3  1  0  0  0  0
 27 28  1  0  0  0  0
 28 29  1  0  0  0  0
 30 28  2  0  0  0  0
 30 31  1  0  0  0  0
 32 33  1  0  0  0  0
 34 32  1  0  0  0  0
 35 32  1  0  0  0  0
 36 38  1  0  0  0  0
 36  3  1  0  0  0  0
 36 39  1  0  0  0  0
 37 36  1  0  0  0  0
M  CHG  2   4  -1   5  -1
M  END
