1,3,29
 OpenBabel05122313063D

 29 29  0  0  1  0  0  0  0  0999 V2000
   -1.1129    0.8096   -1.0615 O   0  5  0  0  0  0  0  0  0  0  0  0
    0.1713   -3.0665    2.9074 O   0  5  0  0  0  0  0  0  0  0  0  0
    0.5256   -1.2925    1.5505 O   0  0  0  0  0  0  0  0  0  0  0  0
   -2.3944    1.0657   -1.2103 C   0  0  0  0  0  0  0  0  0  0  0  0
   -2.8201    2.0988   -2.0826 C   0  0  0  0  0  0  0  0  0  0  0  0
   -2.0510    2.6631   -2.6287 H   0  0  0  0  0  0  0  0  0  0  0  0
   -4.1780    2.3919   -2.2169 C   0  0  0  0  0  0  0  0  0  0  0  0
   -4.4883    3.2087   -2.8869 H   0  0  0  0  0  0  0  0  0  0  0  0
   -5.1571    1.6615   -1.5066 C   0  0  0  0  0  0  0  0  0  0  0  0
   -6.2228    1.9047   -1.6222 H   0  0  0  0  0  0  0  0  0  0  0  0
   -4.7563    0.6280   -0.6636 C   0  0  0  0  0  0  0  0  0  0  0  0
   -5.5045    0.0379   -0.1105 H   0  0  0  0  0  0  0  0  0  0  0  0
   -3.3840    0.3090   -0.4982 C   0  0  0  0  0  0  0  0  0  0  0  0
   -3.0069   -0.8111    0.3250 C   0  0  0  0  0  3  0  0  0  0  0  0
   -3.8463   -1.3844    0.7716 H   0  0  0  0  0  0  0  0  0  0  0  0
   -1.5687   -2.4112    1.3564 C   0  0  2  0  0  0  0  0  0  0  0  0
   -2.3451   -2.5064    2.1474 H   0  0  0  0  0  0  0  0  0  0  0  0
   -0.1967   -2.2889    2.0479 C   0  0  0  0  0  0  0  0  0  0  0  0
   -1.5918   -3.7220    0.5126 C   0  0  0  0  0  0  0  0  0  0  0  0
   -1.3405   -4.5054    1.2604 H   0  0  0  0  0  0  0  0  0  0  0  0
   -2.9814   -4.0192   -0.0566 C   0  0  0  0  0  0  0  0  0  0  0  0
   -2.9919   -5.0167   -0.5403 H   0  0  0  0  0  0  0  0  0  0  0  0
   -3.2747   -3.2821   -0.8335 H   0  0  0  0  0  0  0  0  0  0  0  0
   -3.7623   -4.0200    0.7317 H   0  0  0  0  0  0  0  0  0  0  0  0
   -0.5217   -3.7350   -0.5847 C   0  0  0  0  0  0  0  0  0  0  0  0
    0.4978   -3.6038   -0.1717 H   0  0  0  0  0  0  0  0  0  0  0  0
   -0.6901   -2.9246   -1.3227 H   0  0  0  0  0  0  0  0  0  0  0  0
   -0.5435   -4.7006   -1.1287 H   0  0  0  0  0  0  0  0  0  0  0  0
   -1.7871   -1.2062    0.5664 N   0  0  0  0  0  2  0  0  0  0  0  0
  3 18  2  0  0  0  0
  4  1  1  0  0  0  0
  4 13  1  0  0  0  0
  5  4  2  0  0  0  0
  6  5  1  0  0  0  0
  7  5  1  0  0  0  0
  7  9  2  0  0  0  0
  8  7  1  0  0  0  0
  9 11  1  0  0  0  0
 10  9  1  0  0  0  0
 11 13  2  0  0  0  0
 11 12  1  0  0  0  0
 13 14  1  0  0  0  0
 14 29  1  0  0  0  0
 14 15  1  0  0  0  0
 16 18  1  0  0  0  0
 16 17  1  1  0  0  0
 18  2  1  0  0  0  0
 19 20  1  0  0  0  0
 19 16  1  0  0  0  0
 21 19  1  0  0  0  0
 21 24  1  0  0  0  0
 22 21  1  0  0  0  0
 23 21  1  0  0  0  0
 25 26  1  0  0  0  0
 25 19  1  0  0  0  0
 27 25  1  0  0  0  0
 28 25  1  0  0  0  0
 29 16  1  0  0  0  0
M  CHG  2   1  -1   2  -1
M  END
