1,2,5
 OpenBabel05122313063D

 35 37  0  0  0  0  0  0  0  0999 V2000
    3.3190    0.9521   -0.4962 O   0  5  0  0  0  0  0  0  0  0  0  0
   -0.2491    0.9575   -0.1443 O   0  5  0  0  0  0  0  0  0  0  0  0
   -1.8084   -2.9574    0.0995 O   0  0  0  0  0  0  0  0  0  0  0  0
   -0.8627   -2.5999    0.0772 H   0  0  0  0  0  0  0  0  0  0  0  0
    1.4433   -0.8294    0.0152 N   0  0  0  0  0  2  0  0  0  0  0  0
    0.1673   -1.2884    0.0090 N   0  0  0  0  0  0  0  0  0  0  0  0
    4.2184   -0.0078   -0.3129 C   0  0  0  0  0  0  0  0  0  0  0  0
    5.5937    0.2897   -0.4445 C   0  0  0  0  0  0  0  0  0  0  0  0
    5.8786    1.3262   -0.6734 H   0  0  0  0  0  0  0  0  0  0  0  0
    6.5490   -0.7170   -0.2837 C   0  0  0  0  0  0  0  0  0  0  0  0
    7.6164   -0.4677   -0.3831 H   0  0  0  0  0  0  0  0  0  0  0  0
    6.1621   -2.0441    0.0026 C   0  0  0  0  0  0  0  0  0  0  0  0
    6.9226   -2.8281    0.1274 H   0  0  0  0  0  0  0  0  0  0  0  0
    4.8090   -2.3532    0.1223 C   0  0  0  0  0  0  0  0  0  0  0  0
    4.4897   -3.3848    0.3380 H   0  0  0  0  0  0  0  0  0  0  0  0
    3.8132   -1.3518   -0.0247 C   0  0  0  0  0  0  0  0  0  0  0  0
    2.4227   -1.7034    0.0498 C   0  0  0  0  0  3  0  0  0  0  0  0
    2.1474   -2.7724    0.1244 H   0  0  0  0  0  0  0  0  0  0  0  0
   -0.6909   -0.2694   -0.0543 C   0  0  0  0  0  0  0  0  0  0  0  0
   -2.1285   -0.5413   -0.0452 C   0  0  0  0  0  0  0  0  0  0  0  0
   -2.6288   -1.9010    0.0355 C   0  0  0  0  0  0  0  0  0  0  0  0
   -4.0103   -2.1067    0.0454 C   0  0  0  0  0  0  0  0  0  0  0  0
   -4.3766   -3.1418    0.1071 H   0  0  0  0  0  0  0  0  0  0  0  0
   -4.9276   -1.0284   -0.0212 C   0  0  0  0  0  0  0  0  0  0  0  0
   -6.3424   -1.2272   -0.0113 C   0  0  0  0  0  0  0  0  0  0  0  0
   -6.7306   -2.2556    0.0507 H   0  0  0  0  0  0  0  0  0  0  0  0
   -7.2127   -0.1507   -0.0780 C   0  0  0  0  0  0  0  0  0  0  0  0
   -8.2996   -0.3254   -0.0690 H   0  0  0  0  0  0  0  0  0  0  0  0
   -6.7183    1.1829   -0.1585 C   0  0  0  0  0  0  0  0  0  0  0  0
   -7.4243    2.0251   -0.2108 H   0  0  0  0  0  0  0  0  0  0  0  0
   -5.3529    1.4132   -0.1703 C   0  0  0  0  0  0  0  0  0  0  0  0
   -4.9571    2.4392   -0.2321 H   0  0  0  0  0  0  0  0  0  0  0  0
   -4.4271    0.3280   -0.1028 C   0  0  0  0  0  0  0  0  0  0  0  0
   -3.0273    0.5280   -0.1125 C   0  0  0  0  0  0  0  0  0  0  0  0
   -2.6177    1.5471   -0.1728 H   0  0  0  0  0  0  0  0  0  0  0  0
  1  7  1  0  0  0  0
  2 19  1  0  0  0  0
  4  3  1  0  0  0  0
  5 17  1  0  0  0  0
  6  5  1  0  0  0  0
  7 16  1  0  0  0  0
  8  7  2  0  0  0  0
  8 10  1  0  0  0  0
  9  8  1  0  0  0  0
 10 12  2  0  0  0  0
 11 10  1  0  0  0  0
 12 14  1  0  0  0  0
 12 13  1  0  0  0  0
 14 15  1  0  0  0  0
 16 17  1  0  0  0  0
 16 14  2  0  0  0  0
 17 18  1  0  0  0  0
 19 20  1  0  0  0  0
 19  6  2  0  0  0  0
 20 21  1  0  0  0  0
 21 22  2  0  0  0  0
 21  3  1  0  0  0  0
 22 23  1  0  0  0  0
 24 25  1  0  0  0  0
 24 22  1  0  0  0  0
 25 26  1  0  0  0  0
 27 28  1  0  0  0  0
 27 25  2  0  0  0  0
 29 27  1  0  0  0  0
 30 29  1  0  0  0  0
 31 29  2  0  0  0  0
 31 33  1  0  0  0  0
 32 31  1  0  0  0  0
 33 24  2  0  0  0  0
 34 33  1  0  0  0  0
 34 20  2  0  0  0  0
 35 34  1  0  0  0  0
M  CHG  2   1  -1   2  -1
M  END
