1,2,4
 OpenBabel05122313063D

 23 22  0  0  0  0  0  0  0  0999 V2000
   -1.7294    0.9766   -0.0676 N   0  0  0  0  0  0  0  0  0  0  0  0
    0.6473    1.3538    1.1809 O   0  5  0  0  0  0  0  0  0  0  0  0
   -0.0071    3.2555    2.2035 O   0  0  0  0  0  0  0  0  0  0  0  0
    0.5900    1.0590   -1.4750 O   0  5  0  0  0  0  0  0  0  0  0  0
   -0.1063    2.7184   -2.8360 O   0  0  0  0  0  0  0  0  0  0  0  0
   -5.2718   -1.2523   -0.8791 O   0  0  0  0  0  0  0  0  0  0  0  0
   -6.0214   -1.8658   -0.7207 H   0  0  0  0  0  0  0  0  0  0  0  0
   -6.2802   -0.3017    0.9043 O   0  0  0  0  0  0  0  0  0  0  0  0
   -0.2267    2.2571    1.5240 C   0  0  0  0  0  0  0  0  0  0  0  0
   -1.6662    1.9178    1.0825 C   0  0  0  0  0  0  0  0  0  0  0  0
   -2.2314    2.8511    0.8809 H   0  0  0  0  0  0  0  0  0  0  0  0
   -2.1278    1.4129    1.9548 H   0  0  0  0  0  0  0  0  0  0  0  0
   -0.2952    1.8853   -1.9547 C   0  0  0  0  0  0  0  0  0  0  0  0
   -1.7136    1.6667   -1.3848 C   0  0  0  0  0  0  0  0  0  0  0  0
   -2.2207    1.0060   -2.1167 H   0  0  0  0  0  0  0  0  0  0  0  0
   -2.2588    2.6325   -1.3495 H   0  0  0  0  0  0  0  0  0  0  0  0
   -5.3738   -0.3056    0.0915 C   0  0  0  0  0  0  0  0  0  0  0  0
   -4.2468    0.6988    0.0100 C   0  0  0  0  0  0  0  0  0  0  0  0
   -4.3660    1.2564   -0.9444 H   0  0  0  0  0  0  0  0  0  0  0  0
   -4.3894    1.4112    0.8438 H   0  0  0  0  0  0  0  0  0  0  0  0
   -2.8659    0.0233    0.0487 C   0  0  0  0  0  0  0  0  0  0  0  0
   -2.7579   -0.7090   -0.7721 H   0  0  0  0  0  0  0  0  0  0  0  0
   -2.7150   -0.5375    0.9906 H   0  0  0  0  0  0  0  0  0  0  0  0
  1 21  1  0  0  0  0
  1 10  1  0  0  0  0
  2  9  1  0  0  0  0
  5 13  2  0  0  0  0
  6  7  1  0  0  0  0
  6 17  1  0  0  0  0
  9  3  2  0  0  0  0
 10  9  1  0  0  0  0
 10 12  1  0  0  0  0
 11 10  1  0  0  0  0
 13  4  1  0  0  0  0
 13 14  1  0  0  0  0
 14 16  1  0  0  0  0
 14  1  1  0  0  0  0
 15 14  1  0  0  0  0
 17  8  2  0  0  0  0
 18 21  1  0  0  0  0
 18 17  1  0  0  0  0
 18 20  1  0  0  0  0
 19 18  1  0  0  0  0
 21 23  1  0  0  0  0
 22 21  1  0  0  0  0
M  CHG  2   2  -1   4  -1
M  END
