1,2,3
 OpenBabel05122313063D

 35 35  0  0  1  0  0  0  0  0999 V2000
    0.7617   -0.2011    1.7053 O   0  0  0  0  0  1  0  0  0  0  0  0
   -0.7620   -0.2004   -1.7053 O   0  0  0  0  0  1  0  0  0  0  0  0
    0.0007    2.0487    0.0001 N   0  0  0  0  0  2  0  0  0  0  0  0
    0.0731    2.7373    1.1704 C   0  0  1  0  0  3  0  0  0  0  0  0
    0.1034    4.1452    1.1949 C   0  0  0  0  0  0  0  0  0  0  0  0
    0.0024    4.8618    0.0002 C   0  0  0  0  0  0  0  0  0  0  0  0
   -0.0994    4.1455   -1.1945 C   0  0  0  0  0  0  0  0  0  0  0  0
   -0.0709    2.7375   -1.1701 C   0  0  0  0  0  0  0  0  0  0  0  0
   -0.0659    1.9944   -2.4835 C   0  0  0  0  0  0  0  0  0  0  0  0
   -1.0601    0.8193   -2.6464 C   0  0  0  0  0  0  0  0  0  0  0  0
   -2.5051    1.2979   -2.4456 C   0  0  0  0  0  0  0  0  0  0  0  0
   -0.8856    0.1891   -4.0359 C   0  0  0  0  0  0  0  0  0  0  0  0
    0.0671    1.9940    2.4837 C   0  0  0  0  0  0  0  0  0  0  0  0
    1.0605    0.8182    2.6466 C   0  0  0  0  0  0  0  0  0  0  0  0
    2.5058    1.2956    2.4461 C   0  0  0  0  0  0  0  0  0  0  0  0
    0.8852    0.1879    4.0360 C   0  0  0  0  0  0  0  0  0  0  0  0
    0.1867    4.6641    2.1607 H   0  0  0  0  0  0  0  0  0  0  0  0
    0.0031    5.9623    0.0003 H   0  0  0  0  0  0  0  0  0  0  0  0
   -0.1821    4.6645   -2.1602 H   0  0  0  0  0  0  0  0  0  0  0  0
    0.9564    1.5973   -2.6489 H   0  0  0  0  0  0  0  0  0  0  0  0
   -0.2559    2.7223   -3.2962 H   0  0  0  0  0  0  0  0  0  0  0  0
   -2.7757    2.0309   -3.2314 H   0  0  0  0  0  0  0  0  0  0  0  0
   -2.6350    1.7814   -1.4590 H   0  0  0  0  0  0  0  0  0  0  0  0
   -3.2036    0.4419   -2.5058 H   0  0  0  0  0  0  0  0  0  0  0  0
   -1.1130    0.9172   -4.8398 H   0  0  0  0  0  0  0  0  0  0  0  0
   -1.5669   -0.6777   -4.1369 H   0  0  0  0  0  0  0  0  0  0  0  0
    0.1533   -0.1731   -4.1656 H   0  0  0  0  0  0  0  0  0  0  0  0
   -0.9555    1.5976    2.6486 H   0  0  0  0  0  0  0  0  0  0  0  0
    0.2573    2.7217    3.2966 H   0  0  0  0  0  0  0  0  0  0  0  0
    2.7768    2.0285    3.2319 H   0  0  0  0  0  0  0  0  0  0  0  0
    2.6363    1.7790    1.4595 H   0  0  0  0  0  0  0  0  0  0  0  0
    3.2036    0.4391    2.5065 H   0  0  0  0  0  0  0  0  0  0  0  0
    1.1131    0.9157    4.8400 H   0  0  0  0  0  0  0  0  0  0  0  0
    1.5658   -0.6795    4.1369 H   0  0  0  0  0  0  0  0  0  0  0  0
   -0.1539   -0.1735    4.1655 H   0  0  0  0  0  0  0  0  0  0  0  0
  1 14  1  0  0  0  0
  3  4  1  0  0  0  0
  4  5  1  0  0  0  0
  4 13  1  1  0  0  0
  5 17  1  0  0  0  0
  6 18  1  0  0  0  0
  6  5  2  0  0  0  0
  7  8  2  0  0  0  0
  7  6  1  0  0  0  0
  8  3  1  0  0  0  0
  9  8  1  0  0  0  0
 10  9  1  0  0  0  0
 10 11  1  0  0  0  0
 10  2  1  0  0  0  0
 11 23  1  0  0  0  0
 12 10  1  0  0  0  0
 13 14  1  0  0  0  0
 13 28  1  0  0  0  0
 13 29  1  0  0  0  0
 14 16  1  0  0  0  0
 15 32  1  0  0  0  0
 15 14  1  0  0  0  0
 15 30  1  0  0  0  0
 16 34  1  0  0  0  0
 16 35  1  0  0  0  0
 16 33  1  0  0  0  0
 19  7  1  0  0  0  0
 20  9  1  0  0  0  0
 21  9  1  0  0  0  0
 22 11  1  0  0  0  0
 24 11  1  0  0  0  0
 25 12  1  0  0  0  0
 26 12  1  0  0  0  0
 27 12  1  0  0  0  0
 31 15  1  0  0  0  0
M  END
