2,3,4
 OpenBabel05122313063D

 27 28  0  0  0  0  0  0  0  0999 V2000
   -6.2054   -2.2318   -0.1134 Cl  0  0  0  0  0  0  0  0  0  0  0  0
   -1.5426    1.3709    0.1046 O   0  5  0  0  0  0  0  0  0  0  0  0
    2.0614    0.6473   -0.1895 O   0  5  0  0  0  0  0  0  0  0  0  0
    0.0393   -0.7875   -0.0662 N   0  0  0  0  0  2  0  0  0  0  0  0
    1.2037   -1.4835    0.0189 N   0  0  0  0  0  0  0  0  0  0  0  0
    6.2473   -2.1696    0.0564 N   0  0  0  0  0  0  0  0  0  0  0  0
   -2.5721    0.5428    0.0230 C   0  0  0  0  0  0  0  0  0  0  0  0
   -3.8876    1.0643    0.0302 C   0  0  0  0  0  0  0  0  0  0  0  0
   -4.0105    2.1558    0.0714 H   0  0  0  0  0  0  0  0  0  0  0  0
   -4.9960    0.2175   -0.0134 C   0  0  0  0  0  0  0  0  0  0  0  0
   -6.0150    0.6296   -0.0113 H   0  0  0  0  0  0  0  0  0  0  0  0
   -4.8128   -1.1811   -0.0601 C   0  0  0  0  0  0  0  0  0  0  0  0
   -3.5284   -1.7236   -0.0617 C   0  0  0  0  0  0  0  0  0  0  0  0
   -3.3939   -2.8145   -0.0946 H   0  0  0  0  0  0  0  0  0  0  0  0
   -2.3900   -0.8786   -0.0280 C   0  0  0  0  0  0  0  0  0  0  0  0
   -1.0778   -1.4695    0.0039 C   0  0  0  0  0  3  0  0  0  0  0  0
   -0.9878   -2.5683    0.0945 H   0  0  0  0  0  0  0  0  0  0  0  0
    2.2230   -0.6480   -0.0739 C   0  0  0  0  0  0  0  0  0  0  0  0
    3.6029   -1.1802   -0.0308 C   0  0  0  0  0  0  0  0  0  0  0  0
    4.7053   -0.3148   -0.1674 C   0  0  0  0  0  0  0  0  0  0  0  0
    4.5408    0.7621   -0.3138 H   0  0  0  0  0  0  0  0  0  0  0  0
    5.9961   -0.8620   -0.1168 C   0  0  0  0  0  0  0  0  0  0  0  0
    6.8774   -0.2038   -0.2231 H   0  0  0  0  0  0  0  0  0  0  0  0
    5.1880   -2.9886    0.1846 C   0  0  0  0  0  0  0  0  0  0  0  0
    5.4134   -4.0610    0.3251 H   0  0  0  0  0  0  0  0  0  0  0  0
    3.8561   -2.5552    0.1488 C   0  0  0  0  0  0  0  0  0  0  0  0
    3.0155   -3.2547    0.2569 H   0  0  0  0  0  0  0  0  0  0  0  0
  1 12  1  0  0  0  0
  3 18  1  0  0  0  0
  4 16  1  0  0  0  0
  4  5  1  0  0  0  0
  6 24  1  0  0  0  0
  7  8  1  0  0  0  0
  7  2  1  0  0  0  0
  8  9  1  0  0  0  0
 10 11  1  0  0  0  0
 10  8  2  0  0  0  0
 12 10  1  0  0  0  0
 13 12  2  0  0  0  0
 13 15  1  0  0  0  0
 14 13  1  0  0  0  0
 15 16  1  0  0  0  0
 15  7  2  0  0  0  0
 16 17  1  0  0  0  0
 18 19  1  0  0  0  0
 18  5  2  0  0  0  0
 19 26  1  0  0  0  0
 20 22  1  0  0  0  0
 20 19  2  0  0  0  0
 21 20  1  0  0  0  0
 22  6  2  0  0  0  0
 23 22  1  0  0  0  0
 24 25  1  0  0  0  0
 26 24  2  0  0  0  0
 26 27  1  0  0  0  0
M  CHG  2   2  -1   3  -1
M  END
