2,4,5
 OpenBabel05122313063D

 54 55  0  0  0  0  0  0  0  0999 V2000
   -1.9816    0.7274   -0.0816 N   0  0  0  0  0  0  0  0  0  0  0  0
   -0.6366    0.9642   -0.0290 N   0  0  0  0  0  2  0  0  0  0  0  0
   -3.8704   -2.0683   -0.8030 O   0  0  0  0  0  0  0  0  0  0  0  0
   -1.3822   -1.5174    0.2417 O   0  5  0  0  0  0  0  0  0  0  0  0
    2.2060    0.4510    0.0013 O   0  5  0  0  0  0  0  0  0  0  0  0
   -6.9477    1.7374    0.5743 C   0  0  0  0  0  0  0  0  0  0  0  0
   -5.9975    1.4286    1.5607 C   0  0  0  0  0  0  0  0  0  0  0  0
   -6.1057    1.8667    2.5666 H   0  0  0  0  0  0  0  0  0  0  0  0
   -4.9070    0.5754    1.3088 C   0  0  0  0  0  0  0  0  0  0  0  0
   -4.7805   -0.0090    0.0221 C   0  0  0  0  0  0  0  0  0  0  0  0
   -5.7470    0.2633   -0.9866 C   0  0  0  0  0  0  0  0  0  0  0  0
   -6.7993    1.1441   -0.6941 C   0  0  0  0  0  0  0  0  0  0  0  0
   -7.5345    1.3705   -1.4840 H   0  0  0  0  0  0  0  0  0  0  0  0
   -3.6721   -0.9769   -0.2701 C   0  0  0  0  0  0  0  0  0  0  0  0
   -2.2387   -0.5782    0.0342 C   0  0  0  0  0  0  0  0  0  0  0  0
   -3.9216    0.3065    2.4226 C   0  0  0  0  0  0  0  0  0  0  0  0
   -4.3780    0.5178    3.4095 H   0  0  0  0  0  0  0  0  0  0  0  0
   -3.0263    0.9519    2.3095 H   0  0  0  0  0  0  0  0  0  0  0  0
   -3.5612   -0.7408    2.4291 H   0  0  0  0  0  0  0  0  0  0  0  0
   -8.0936    2.6770    0.8530 C   0  0  0  0  0  0  0  0  0  0  0  0
   -8.0044    3.6063    0.2510 H   0  0  0  0  0  0  0  0  0  0  0  0
   -8.1329    2.9705    1.9199 H   0  0  0  0  0  0  0  0  0  0  0  0
   -9.0683    2.2179    0.5871 H   0  0  0  0  0  0  0  0  0  0  0  0
   -5.6501   -0.3517   -2.3616 C   0  0  0  0  0  0  0  0  0  0  0  0
   -6.4133    0.0763   -3.0397 H   0  0  0  0  0  0  0  0  0  0  0  0
   -5.7812   -1.4499   -2.3150 H   0  0  0  0  0  0  0  0  0  0  0  0
   -4.6505   -0.1798   -2.8115 H   0  0  0  0  0  0  0  0  0  0  0  0
   -0.2245    2.2075   -0.1070 C   0  0  0  0  0  3  0  0  0  0  0  0
   -1.0122    2.9859   -0.1776 H   0  0  0  0  0  0  0  0  0  0  0  0
    1.1499    2.6440   -0.1136 C   0  0  0  0  0  0  0  0  0  0  0  0
    2.2976    1.7542   -0.0616 C   0  0  0  0  0  0  0  0  0  0  0  0
    3.6133    2.3474   -0.0780 C   0  0  0  0  0  0  0  0  0  0  0  0
    3.7536    3.7356   -0.1363 C   0  0  0  0  0  0  0  0  0  0  0  0
    4.7661    4.1708   -0.1431 H   0  0  0  0  0  0  0  0  0  0  0  0
    2.6378    4.5999   -0.1886 C   0  0  0  0  0  0  0  0  0  0  0  0
    2.7796    5.6893   -0.2373 H   0  0  0  0  0  0  0  0  0  0  0  0
    1.3621    4.0508   -0.1777 C   0  0  0  0  0  0  0  0  0  0  0  0
    0.4764    4.7055   -0.2175 H   0  0  0  0  0  0  0  0  0  0  0  0
    4.8086    1.4149    0.0385 C   0  0  0  0  0  0  0  0  0  0  0  0
    4.4563    0.4226   -0.3206 H   0  0  0  0  0  0  0  0  0  0  0  0
    5.1834    1.2341    1.5302 C   0  0  0  0  0  0  0  0  0  0  0  0
    5.6382    2.1793    1.9015 H   0  0  0  0  0  0  0  0  0  0  0  0
    4.2414    1.1158    2.1072 H   0  0  0  0  0  0  0  0  0  0  0  0
    6.1077    0.0507    1.8248 C   0  0  0  0  0  0  0  0  0  0  0  0
    6.2966   -0.0543    2.9130 H   0  0  0  0  0  0  0  0  0  0  0  0
    7.0956    0.1537    1.3316 H   0  0  0  0  0  0  0  0  0  0  0  0
    5.6637   -0.9028    1.4658 H   0  0  0  0  0  0  0  0  0  0  0  0
    6.0090    1.8243   -0.8321 C   0  0  0  0  0  0  0  0  0  0  0  0
    6.3908    2.8179   -0.5068 H   0  0  0  0  0  0  0  0  0  0  0  0
    6.8437    1.1159   -0.6431 H   0  0  0  0  0  0  0  0  0  0  0  0
    5.6973    1.8487   -2.3290 C   0  0  0  0  0  0  0  0  0  0  0  0
    6.5879    2.1225   -2.9302 H   0  0  0  0  0  0  0  0  0  0  0  0
    4.8925    2.5751   -2.5607 H   0  0  0  0  0  0  0  0  0  0  0  0
    5.3504    0.8525   -2.6779 H   0  0  0  0  0  0  0  0  0  0  0  0
  1  2  1  0  0  0  0
  1 15  2  0  0  0  0
  3 14  2  0  0  0  0
  6 20  1  0  0  0  0
  6  7  1  0  0  0  0
  7  8  1  0  0  0  0
  9  7  2  0  0  0  0
  9 16  1  0  0  0  0
 10  9  1  0  0  0  0
 11 12  1  0  0  0  0
 11 10  2  0  0  0  0
 12  6  2  0  0  0  0
 13 12  1  0  0  0  0
 14 10  1  0  0  0  0
 14 15  1  0  0  0  0
 15  4  1  0  0  0  0
 16 19  1  0  0  0  0
 16 17  1  0  0  0  0
 18 16  1  0  0  0  0
 20 22  1  0  0  0  0
 21 20  1  0  0  0  0
 23 20  1  0  0  0  0
 24 26  1  0  0  0  0
 24 11  1  0  0  0  0
 25 24  1  0  0  0  0
 27 24  1  0  0  0  0
 28  2  1  0  0  0  0
 29 28  1  0  0  0  0
 30 28  1  0  0  0  0
 30 31  1  0  0  0  0
 31  5  1  0  0  0  0
 32 31  2  0  0  0  0
 32 39  1  0  0  0  0
 33 32  1  0  0  0  0
 34 33  1  0  0  0  0
 35 37  1  0  0  0  0
 35 33  2  0  0  0  0
 36 35  1  0  0  0  0
 37 30  2  0  0  0  0
 38 37  1  0  0  0  0
 39 41  1  0  0  0  0
 40 39  1  0  0  0  0
 41 44  1  0  0  0  0
 41 42  1  0  0  0  0
 41 43  1  0  0  0  0
 44 45  1  0  0  0  0
 46 44  1  0  0  0  0
 47 44  1  0  0  0  0
 48 50  1  0  0  0  0
 48 49  1  0  0  0  0
 48 39  1  0  0  0  0
 51 48  1  0  0  0  0
 52 51  1  0  0  0  0
 53 51  1  0  0  0  0
 54 51  1  0  0  0  0
M  CHG  2   4  -1   5  -1
M  END
