1,2,3
 OpenBabel05122313063D

 63 64  0  0  1  0  0  0  0  0999 V2000
   -0.7431   -1.3996    0.3166 O   0  5  0  0  0  0  0  0  0  0  0  0
    2.9281   -1.0372    0.5702 O   0  0  0  0  0  1  0  0  0  0  0  0
    1.0144    0.8457    0.7167 N   0  0  0  0  0  0  0  0  0  0  0  0
   -1.7107   -0.4613    0.2216 C   0  0  0  0  0  0  0  0  0  0  0  0
   -2.9375   -0.7424   -0.4465 C   0  0  0  0  0  0  0  0  0  0  0  0
   -3.8902    0.2912   -0.4708 C   0  0  0  0  0  0  0  0  0  0  0  0
   -4.8422    0.0987   -0.9822 H   0  0  0  0  0  0  0  0  0  0  0  0
   -3.6987    1.5623    0.1131 C   0  0  0  0  0  0  0  0  0  0  0  0
   -2.4772    1.7907    0.7655 C   0  0  0  0  0  0  0  0  0  0  0  0
   -2.2659    2.7580    1.2436 H   0  0  0  0  0  0  0  0  0  0  0  0
   -1.4906    0.7938    0.8318 C   0  0  0  0  0  0  0  0  0  0  0  0
   -0.1989    1.0172    1.5699 C   0  0  0  0  0  0  0  0  0  0  0  0
   -0.2090    2.0410    2.0081 H   0  0  0  0  0  0  0  0  0  0  0  0
   -0.0968    0.2911    2.4026 H   0  0  0  0  0  0  0  0  0  0  0  0
    2.2457    1.0450    1.5403 C   0  0  1  0  0  0  0  0  0  0  0  0
    2.0152    0.5145    2.4869 H   0  0  0  0  0  0  0  0  0  0  0  0
    3.4278    0.2275    0.9289 C   0  0  2  0  0  0  0  0  0  0  0  0
    4.1454    0.0861    1.7729 H   0  0  0  0  0  0  0  0  0  0  0  0
    4.2306    0.8804   -0.1925 C   0  0  0  0  0  0  0  0  0  0  0  0
    4.0591    0.5099   -1.5409 C   0  0  0  0  0  0  0  0  0  0  0  0
    3.3252   -0.2641   -1.8049 H   0  0  0  0  0  0  0  0  0  0  0  0
    4.8155    1.1284   -2.5487 C   0  0  0  0  0  0  0  0  0  0  0  0
    4.6661    0.8274   -3.5968 H   0  0  0  0  0  0  0  0  0  0  0  0
    5.7583    2.1170   -2.2277 C   0  0  0  0  0  0  0  0  0  0  0  0
    6.3506    2.5986   -3.0206 H   0  0  0  0  0  0  0  0  0  0  0  0
    5.9542    2.4735   -0.8842 C   0  0  0  0  0  0  0  0  0  0  0  0
    6.7078    3.2300   -0.6164 H   0  0  0  0  0  0  0  0  0  0  0  0
    5.2022    1.8522    0.1235 C   0  0  0  0  0  0  0  0  0  0  0  0
    5.3882    2.1161    1.1765 H   0  0  0  0  0  0  0  0  0  0  0  0
    0.9392    1.7397   -0.4599 C   0  0  0  0  0  0  0  0  0  0  0  0
    0.0987    1.4236   -1.1026 H   0  0  0  0  0  0  0  0  0  0  0  0
    1.8715    1.6729   -1.0449 H   0  0  0  0  0  0  0  0  0  0  0  0
    0.7694    2.7960   -0.1545 H   0  0  0  0  0  0  0  0  0  0  0  0
    2.5774    2.4983    1.8745 C   0  0  0  0  0  0  0  0  0  0  0  0
    2.8906    3.0766    0.9849 H   0  0  0  0  0  0  0  0  0  0  0  0
    3.4086    2.5355    2.6057 H   0  0  0  0  0  0  0  0  0  0  0  0
    1.7123    3.0100    2.3411 H   0  0  0  0  0  0  0  0  0  0  0  0
   -3.1969   -2.1025   -1.1212 C   0  0  0  0  0  0  0  0  0  0  0  0
   -2.2201   -2.2782   -2.3082 C   0  0  0  0  0  0  0  0  0  0  0  0
   -2.3931   -3.2571   -2.8015 H   0  0  0  0  0  0  0  0  0  0  0  0
   -1.1623   -2.2393   -1.9918 H   0  0  0  0  0  0  0  0  0  0  0  0
   -2.3774   -1.4817   -3.0634 H   0  0  0  0  0  0  0  0  0  0  0  0
   -3.0080   -3.2518   -0.1025 C   0  0  0  0  0  0  0  0  0  0  0  0
   -3.6956   -3.1292    0.7597 H   0  0  0  0  0  0  0  0  0  0  0  0
   -1.9710   -3.2920    0.2773 H   0  0  0  0  0  0  0  0  0  0  0  0
   -3.2367   -4.2241   -0.5854 H   0  0  0  0  0  0  0  0  0  0  0  0
   -4.6317   -2.2008   -1.6729 C   0  0  0  0  0  0  0  0  0  0  0  0
   -5.3936   -2.0837   -0.8753 H   0  0  0  0  0  0  0  0  0  0  0  0
   -4.7790   -3.1985   -2.1325 H   0  0  0  0  0  0  0  0  0  0  0  0
   -4.8313   -1.4445   -2.4587 H   0  0  0  0  0  0  0  0  0  0  0  0
   -4.8081    2.6238    0.0110 C   0  0  0  0  0  0  0  0  0  0  0  0
   -5.0938    2.9217   -1.4786 C   0  0  0  0  0  0  0  0  0  0  0  0
   -4.1868    3.3093   -1.9852 H   0  0  0  0  0  0  0  0  0  0  0  0
   -5.8968    3.6816   -1.5774 H   0  0  0  0  0  0  0  0  0  0  0  0
   -5.4207    2.0139   -2.0235 H   0  0  0  0  0  0  0  0  0  0  0  0
   -4.4115    3.9405    0.7005 C   0  0  0  0  0  0  0  0  0  0  0  0
   -4.2169    3.7967    1.7825 H   0  0  0  0  0  0  0  0  0  0  0  0
   -5.2331    4.6787    0.6047 H   0  0  0  0  0  0  0  0  0  0  0  0
   -3.5062    4.3883    0.2429 H   0  0  0  0  0  0  0  0  0  0  0  0
   -6.0921    2.0887    0.6847 C   0  0  0  0  0  0  0  0  0  0  0  0
   -6.4484    1.1552    0.2056 H   0  0  0  0  0  0  0  0  0  0  0  0
   -6.9095    2.8364    0.6152 H   0  0  0  0  0  0  0  0  0  0  0  0
   -5.9141    1.8699    1.7571 H   0  0  0  0  0  0  0  0  0  0  0  0
  2 17  1  0  0  0  0
  3 15  1  0  0  0  0
  3 12  1  0  0  0  0
  4  1  1  0  0  0  0
  4 11  1  0  0  0  0
  5  4  2  0  0  0  0
  6  5  1  0  0  0  0
  6  8  2  0  0  0  0
  7  6  1  0  0  0  0
  8  9  1  0  0  0  0
  9 11  2  0  0  0  0
  9 10  1  0  0  0  0
 11 12  1  0  0  0  0
 12 13  1  0  0  0  0
 12 14  1  0  0  0  0
 15 34  1  0  0  0  0
 15 16  1  1  0  0  0
 17 15  1  0  0  0  0
 17 18  1  1  0  0  0
 19 28  1  0  0  0  0
 19 17  1  0  0  0  0
 20 19  2  0  0  0  0
 21 20  1  0  0  0  0
 22 24  2  0  0  0  0
 22 20  1  0  0  0  0
 23 22  1  0  0  0  0
 24 26  1  0  0  0  0
 25 24  1  0  0  0  0
 26 27  1  0  0  0  0
 26 28  2  0  0  0  0
 28 29  1  0  0  0  0
 30 33  1  0  0  0  0
 30  3  1  0  0  0  0
 31 30  1  0  0  0  0
 32 30  1  0  0  0  0
 34 37  1  0  0  0  0
 34 36  1  0  0  0  0
 35 34  1  0  0  0  0
 38  5  1  0  0  0  0
 38 43  1  0  0  0  0
 39 41  1  0  0  0  0
 39 38  1  0  0  0  0
 40 39  1  0  0  0  0
 42 39  1  0  0  0  0
 43 45  1  0  0  0  0
 43 44  1  0  0  0  0
 46 43  1  0  0  0  0
 47 38  1  0  0  0  0
 47 48  1  0  0  0  0
 49 47  1  0  0  0  0
 50 47  1  0  0  0  0
 51  8  1  0  0  0  0
 51 60  1  0  0  0  0
 51 56  1  0  0  0  0
 52 51  1  0  0  0  0
 53 52  1  0  0  0  0
 54 52  1  0  0  0  0
 55 52  1  0  0  0  0
 56 57  1  0  0  0  0
 58 56  1  0  0  0  0
 59 56  1  0  0  0  0
 60 63  1  0  0  0  0
 61 60  1  0  0  0  0
 62 60  1  0  0  0  0
M  CHG  1   1  -1
M  END
