2,3,4
 OpenBabel05122313063D

 28 29  0  0  0  0  0  0  0  0999 V2000
   -6.2456   -1.5265    0.1991 Br  0  0  0  0  0  0  0  0  0  0  0  0
   -1.1156    1.6919   -0.0735 O   0  5  0  0  0  0  0  0  0  0  0  0
    2.4118    0.4020   -0.5280 O   0  5  0  0  0  0  0  0  0  0  0  0
    0.2434   -0.6963    0.0362 N   0  0  0  0  0  2  0  0  0  0  0  0
    1.3227   -1.5049    0.2202 N   0  0  0  0  0  0  0  0  0  0  0  0
    3.9081   -2.7632    0.3718 N   0  0  0  0  0  0  0  0  0  0  0  0
    5.2284   -2.9508    0.2920 N   0  0  0  0  0  0  0  0  0  0  0  0
    5.6118   -3.8588    0.5616 H   0  0  0  0  0  0  0  0  0  0  0  0
   -2.1790   -0.4806    0.1204 C   0  0  0  0  0  0  0  0  0  0  0  0
   -2.2235    0.9389   -0.0580 C   0  0  0  0  0  0  0  0  0  0  0  0
   -3.4746    1.5822   -0.1655 C   0  0  0  0  0  0  0  0  0  0  0  0
   -3.4838    2.6726   -0.3047 H   0  0  0  0  0  0  0  0  0  0  0  0
   -4.6667    0.8566   -0.0932 C   0  0  0  0  0  0  0  0  0  0  0  0
   -5.6349    1.3695   -0.1809 H   0  0  0  0  0  0  0  0  0  0  0  0
   -4.6227   -0.5391    0.0955 C   0  0  0  0  0  0  0  0  0  0  0  0
   -3.3991   -1.1995    0.2062 C   0  0  0  0  0  0  0  0  0  0  0  0
   -3.3693   -2.2891    0.3518 H   0  0  0  0  0  0  0  0  0  0  0  0
   -0.9407   -1.2129    0.2496 C   0  0  0  0  0  3  0  0  0  0  0  0
   -0.9806   -2.2822    0.5313 H   0  0  0  0  0  0  0  0  0  0  0  0
    2.4213   -0.8606   -0.1172 C   0  0  0  0  0  0  0  0  0  0  0  0
    3.7382   -1.4916   -0.0463 C   0  0  0  0  0  0  0  0  0  0  0  0
    4.9812   -0.8818   -0.3921 C   0  0  0  0  0  0  0  0  0  0  0  0
    5.1387    0.1343   -0.7654 H   0  0  0  0  0  0  0  0  0  0  0  0
    5.9403   -1.8634   -0.1607 C   0  0  0  0  0  0  0  0  0  0  0  0
    7.4242   -1.8755   -0.3257 C   0  0  0  0  0  0  0  0  0  0  0  0
    7.9459   -2.0898    0.6307 H   0  0  0  0  0  0  0  0  0  0  0  0
    7.7731   -0.8904   -0.6850 H   0  0  0  0  0  0  0  0  0  0  0  0
    7.7523   -2.6379   -1.0634 H   0  0  0  0  0  0  0  0  0  0  0  0
  2 10  1  0  0  0  0
  3 20  1  0  0  0  0
  4  5  1  0  0  0  0
  4 18  1  0  0  0  0
  7  6  1  0  0  0  0
  7  8  1  0  0  0  0
  9 16  1  0  0  0  0
  9 18  1  0  0  0  0
 10  9  2  0  0  0  0
 11 13  2  0  0  0  0
 11 10  1  0  0  0  0
 12 11  1  0  0  0  0
 13 15  1  0  0  0  0
 14 13  1  0  0  0  0
 15  1  1  0  0  0  0
 15 16  2  0  0  0  0
 16 17  1  0  0  0  0
 18 19  1  0  0  0  0
 20 21  1  0  0  0  0
 20  5  2  0  0  0  0
 21  6  2  0  0  0  0
 22 24  2  0  0  0  0
 22 21  1  0  0  0  0
 23 22  1  0  0  0  0
 24  7  1  0  0  0  0
 25 24  1  0  0  0  0
 25 26  1  0  0  0  0
 27 25  1  0  0  0  0
 28 25  1  0  0  0  0
M  CHG  2   2  -1   3  -1
M  END
