1,2,3
 OpenBabel05122313063D

 50 50  0  0  0  0  0  0  0  0999 V2000
    0.6180    0.7897    0.2313 O   0  5  0  0  0  0  0  0  0  0  0  0
    3.8803   -0.8999   -0.0974 O   0  0  0  0  0  1  0  0  0  0  0  0
    1.3494   -1.9001   -0.3367 N   0  0  0  0  0  0  0  0  0  0  0  0
   -0.6456    0.3211    0.1896 C   0  0  0  0  0  0  0  0  0  0  0  0
   -1.7295    1.2167   -0.0513 C   0  0  0  0  0  0  0  0  0  0  0  0
   -1.4870    2.7142   -0.3192 C   0  0  0  0  0  0  0  0  0  0  0  0
   -0.6863    2.8746   -1.6339 C   0  0  0  0  0  0  0  0  0  0  0  0
   -1.2569    2.4609   -2.4901 H   0  0  0  0  0  0  0  0  0  0  0  0
    0.2910    2.3601   -1.5946 H   0  0  0  0  0  0  0  0  0  0  0  0
   -0.4977    3.9493   -1.8362 H   0  0  0  0  0  0  0  0  0  0  0  0
   -0.7120    3.3524    0.8586 C   0  0  0  0  0  0  0  0  0  0  0  0
    0.2897    2.9020    0.9799 H   0  0  0  0  0  0  0  0  0  0  0  0
   -1.2724    3.2300    1.8085 H   0  0  0  0  0  0  0  0  0  0  0  0
   -0.5808    4.4394    0.6783 H   0  0  0  0  0  0  0  0  0  0  0  0
   -2.8100    3.4867   -0.4778 C   0  0  0  0  0  0  0  0  0  0  0  0
   -2.5887    4.5571   -0.6611 H   0  0  0  0  0  0  0  0  0  0  0  0
   -3.4393    3.4269    0.4335 H   0  0  0  0  0  0  0  0  0  0  0  0
   -3.4075    3.1218   -1.3377 H   0  0  0  0  0  0  0  0  0  0  0  0
   -3.0211    0.6636   -0.0494 C   0  0  0  0  0  0  0  0  0  0  0  0
   -3.8685    1.3373   -0.2312 H   0  0  0  0  0  0  0  0  0  0  0  0
   -3.2964   -0.7045    0.1632 C   0  0  0  0  0  0  0  0  0  0  0  0
   -4.7515   -1.2040    0.1354 C   0  0  0  0  0  0  0  0  0  0  0  0
   -5.3718   -0.8965   -1.2466 C   0  0  0  0  0  0  0  0  0  0  0  0
   -4.8090   -1.4061   -2.0547 H   0  0  0  0  0  0  0  0  0  0  0  0
   -5.3666    0.1895   -1.4667 H   0  0  0  0  0  0  0  0  0  0  0  0
   -6.4254   -1.2433   -1.2870 H   0  0  0  0  0  0  0  0  0  0  0  0
   -5.5608   -0.4802    1.2355 C   0  0  0  0  0  0  0  0  0  0  0  0
   -5.5588    0.6184    1.0906 H   0  0  0  0  0  0  0  0  0  0  0  0
   -5.1375   -0.6880    2.2391 H   0  0  0  0  0  0  0  0  0  0  0  0
   -6.6178   -0.8191    1.2289 H   0  0  0  0  0  0  0  0  0  0  0  0
   -4.8463   -2.7194    0.3823 C   0  0  0  0  0  0  0  0  0  0  0  0
   -5.9073   -3.0401    0.3562 H   0  0  0  0  0  0  0  0  0  0  0  0
   -4.4368   -3.0018    1.3733 H   0  0  0  0  0  0  0  0  0  0  0  0
   -4.3044   -3.2979   -0.3931 H   0  0  0  0  0  0  0  0  0  0  0  0
   -2.1994   -1.5504    0.3862 C   0  0  0  0  0  0  0  0  0  0  0  0
   -2.3456   -2.6276    0.5512 H   0  0  0  0  0  0  0  0  0  0  0  0
   -0.8844   -1.0563    0.4095 C   0  0  0  0  0  0  0  0  0  0  0  0
    0.2754   -1.9758    0.6894 C   0  0  0  0  0  0  0  0  0  0  0  0
    0.7557   -1.7160    1.6558 H   0  0  0  0  0  0  0  0  0  0  0  0
   -0.0987   -3.0241    0.7635 H   0  0  0  0  0  0  0  0  0  0  0  0
    0.8152   -2.1816   -1.6829 C   0  0  0  0  0  0  0  0  0  0  0  0
    0.0587   -1.4228   -1.9516 H   0  0  0  0  0  0  0  0  0  0  0  0
    0.3413   -3.1904   -1.7153 H   0  0  0  0  0  0  0  0  0  0  0  0
    1.6278   -2.1294   -2.4286 H   0  0  0  0  0  0  0  0  0  0  0  0
    2.4674   -2.8086   -0.0083 C   0  0  0  0  0  0  0  0  0  0  0  0
    2.2759   -3.8431   -0.3780 H   0  0  0  0  0  0  0  0  0  0  0  0
    2.5526   -2.8536    1.0964 H   0  0  0  0  0  0  0  0  0  0  0  0
    3.7600   -2.2201   -0.5687 C   0  0  0  0  0  0  0  0  0  0  0  0
    4.6354   -2.8207   -0.2342 H   0  0  0  0  0  0  0  0  0  0  0  0
    3.7549   -2.2338   -1.6854 H   0  0  0  0  0  0  0  0  0  0  0  0
  3 45  1  0  0  0  0
  3 38  1  0  0  0  0
  4  1  1  0  0  0  0
  4 37  1  0  0  0  0
  5 19  1  0  0  0  0
  5  4  2  0  0  0  0
  6  5  1  0  0  0  0
  6 11  1  0  0  0  0
  7  9  1  0  0  0  0
  7  6  1  0  0  0  0
  8  7  1  0  0  0  0
 10  7  1  0  0  0  0
 11 12  1  0  0  0  0
 11 13  1  0  0  0  0
 14 11  1  0  0  0  0
 15  6  1  0  0  0  0
 15 17  1  0  0  0  0
 16 15  1  0  0  0  0
 18 15  1  0  0  0  0
 19 21  2  0  0  0  0
 20 19  1  0  0  0  0
 21 35  1  0  0  0  0
 22 21  1  0  0  0  0
 22 31  1  0  0  0  0
 22 27  1  0  0  0  0
 23 22  1  0  0  0  0
 24 23  1  0  0  0  0
 25 23  1  0  0  0  0
 26 23  1  0  0  0  0
 27 29  1  0  0  0  0
 28 27  1  0  0  0  0
 30 27  1  0  0  0  0
 31 33  1  0  0  0  0
 32 31  1  0  0  0  0
 34 31  1  0  0  0  0
 35 37  2  0  0  0  0
 35 36  1  0  0  0  0
 37 38  1  0  0  0  0
 38 40  1  0  0  0  0
 38 39  1  0  0  0  0
 41  3  1  0  0  0  0
 42 41  1  0  0  0  0
 43 41  1  0  0  0  0
 44 41  1  0  0  0  0
 45 47  1  0  0  0  0
 46 45  1  0  0  0  0
 48 49  1  0  0  0  0
 48  2  1  0  0  0  0
 48 45  1  0  0  0  0
 50 48  1  0  0  0  0
M  CHG  1   1  -1
M  END
