1,2,4
 OpenBabel05122313063D

 30 31  0  0  0  0  0  0  0  0999 V2000
    1.5419    0.8822    0.4408 O   0  5  0  0  0  0  0  0  0  0  0  0
   -2.1805    0.4354    1.1294 O   0  5  0  0  0  0  0  0  0  0  0  0
    6.2763   -0.4851   -0.6814 C   0  0  0  0  0  0  0  0  0  0  0  0
    0.0150   -1.0917    0.4004 N   0  0  0  0  0  2  0  0  0  0  0  0
    5.6471    0.7465   -0.3602 C   0  0  0  0  0  0  0  0  0  0  0  0
    6.2508    1.6669   -0.3210 H   0  0  0  0  0  0  0  0  0  0  0  0
    7.6179   -0.5365   -0.9781 N   0  0  0  0  0  0  0  0  0  0  0  0
    4.2809    0.7991   -0.0957 C   0  0  0  0  0  0  0  0  0  0  0  0
    3.7978    1.7538    0.1564 H   0  0  0  0  0  0  0  0  0  0  0  0
    1.3055   -1.3937    0.0950 N   0  0  0  0  0  0  0  0  0  0  0  0
   -0.8782   -2.0332    0.2225 C   0  0  0  0  0  3  0  0  0  0  0  0
   -0.5021   -3.0157   -0.1214 H   0  0  0  0  0  0  0  0  0  0  0  0
    2.0556   -0.3054    0.1478 C   0  0  0  0  0  0  0  0  0  0  0  0
   -2.8981   -0.6338    0.8097 C   0  0  0  0  0  0  0  0  0  0  0  0
    5.4759   -1.6594   -0.7259 C   0  0  0  0  0  0  0  0  0  0  0  0
    5.9472   -2.6236   -0.9739 H   0  0  0  0  0  0  0  0  0  0  0  0
   -3.1538   -2.9515    0.0513 C   0  0  0  0  0  0  0  0  0  0  0  0
   -2.6888   -3.8953   -0.2751 H   0  0  0  0  0  0  0  0  0  0  0  0
   -5.1182   -1.6268    0.5413 C   0  0  0  0  0  0  0  0  0  0  0  0
   -6.2128   -1.5274    0.6054 H   0  0  0  0  0  0  0  0  0  0  0  0
   -2.3024   -1.8649    0.3802 C   0  0  0  0  0  0  0  0  0  0  0  0
   -4.3078   -0.5393    0.8834 C   0  0  0  0  0  0  0  0  0  0  0  0
   -4.7364    0.4159    1.2194 H   0  0  0  0  0  0  0  0  0  0  0  0
   -4.5435   -2.8440    0.1230 C   0  0  0  0  0  0  0  0  0  0  0  0
   -5.1807   -3.7006   -0.1400 H   0  0  0  0  0  0  0  0  0  0  0  0
    4.1120   -1.6003   -0.4605 C   0  0  0  0  0  0  0  0  0  0  0  0
    3.4938   -2.5086   -0.4922 H   0  0  0  0  0  0  0  0  0  0  0  0
    3.4876   -0.3708   -0.1397 C   0  0  0  0  0  0  0  0  0  0  0  0
    8.0833   -1.4425   -0.9836 H   0  0  0  0  0  0  0  0  0  0  0  0
    8.2044    0.2580   -0.7284 H   0  0  0  0  0  0  0  0  0  0  0  0
  3  5  1  0  0  0  0
  5  6  1  0  0  0  0
  5  8  2  0  0  0  0
  7 30  1  0  0  0  0
  7  3  1  0  0  0  0
  8  9  1  0  0  0  0
 10 13  2  0  0  0  0
 10  4  1  0  0  0  0
 11 21  1  0  0  0  0
 11  4  1  0  0  0  0
 12 11  1  0  0  0  0
 13  1  1  0  0  0  0
 14 22  1  0  0  0  0
 14  2  1  0  0  0  0
 15  3  2  0  0  0  0
 15 26  1  0  0  0  0
 16 15  1  0  0  0  0
 17 24  2  0  0  0  0
 17 21  1  0  0  0  0
 18 17  1  0  0  0  0
 19 20  1  0  0  0  0
 19 22  2  0  0  0  0
 21 14  2  0  0  0  0
 22 23  1  0  0  0  0
 24 19  1  0  0  0  0
 25 24  1  0  0  0  0
 26 28  2  0  0  0  0
 27 26  1  0  0  0  0
 28  8  1  0  0  0  0
 28 13  1  0  0  0  0
 29  7  1  0  0  0  0
M  CHG  2   1  -1   2  -1
M  END
