1,2,5
 OpenBabel05122313063D

 32 33  0  0  1  0  0  0  0  0999 V2000
    2.4478    0.5296    0.0001 O   0  0  0  0  0  1  0  0  0  0  0  0
   -1.2127    0.5989   -0.0012 O   0  5  0  0  0  0  0  0  0  0  0  0
   -2.9000   -3.2537    0.0009 O   0  0  0  0  0  0  0  0  0  0  0  0
   -1.9382   -2.9059    0.0007 H   0  0  0  0  0  0  0  0  0  0  0  0
    0.4212   -1.2965   -0.0003 N   0  0  0  0  0  2  0  0  0  0  0  0
   -0.8975   -1.6749    0.0000 N   0  0  0  0  0  0  0  0  0  0  0  0
    3.2301   -0.5291   -0.0002 C   0  0  2  0  0  3  0  0  0  0  0  0
    2.7674   -1.9013    0.0002 C   0  0  0  0  0  0  0  0  0  0  0  0
    3.7628   -2.9245   -0.0001 C   0  0  0  0  0  0  0  0  0  0  0  0
    3.4473   -3.9758    0.0000 H   0  0  0  0  0  0  0  0  0  0  0  0
    5.1256   -2.6514   -0.0006 C   0  0  0  0  0  0  0  0  0  0  0  0
    5.8516   -3.4770   -0.0009 H   0  0  0  0  0  0  0  0  0  0  0  0
    5.5633   -1.3085   -0.0009 C   0  0  0  0  0  0  0  0  0  0  0  0
    6.6392   -1.0746   -0.0013 H   0  0  0  0  0  0  0  0  0  0  0  0
    4.6331   -0.2771   -0.0007 C   0  0  0  0  0  0  0  0  0  0  0  0
    4.9442    0.7779   -0.0009 H   0  0  0  0  0  0  0  0  0  0  0  0
    1.3557   -2.2454    0.0007 C   0  0  0  0  0  0  0  0  0  0  0  0
    0.8630   -3.6681    0.0021 C   0  0  0  0  0  0  0  0  0  0  0  0
    0.2194   -3.8453    0.8880 H   0  0  0  0  0  0  0  0  0  0  0  0
    1.6757   -4.4099    0.0034 H   0  0  0  0  0  0  0  0  0  0  0  0
    0.2200   -3.8476   -0.8838 H   0  0  0  0  0  0  0  0  0  0  0  0
   -1.7049   -0.6132   -0.0006 C   0  0  0  0  0  0  0  0  0  0  0  0
   -3.1529   -0.8355   -0.0004 C   0  0  0  0  0  0  0  0  0  0  0  0
   -3.6821   -2.1693    0.0003 C   0  0  0  0  0  0  0  0  0  0  0  0
   -5.0866   -2.3403    0.0005 C   0  0  0  0  0  0  0  0  0  0  0  0
   -5.4756   -3.3688    0.0011 H   0  0  0  0  0  0  0  0  0  0  0  0
   -5.9401   -1.2354   -0.0000 C   0  0  0  0  0  0  0  0  0  0  0  0
   -7.0295   -1.3962    0.0001 H   0  0  0  0  0  0  0  0  0  0  0  0
   -5.4234    0.0773   -0.0007 C   0  0  0  0  0  0  0  0  0  0  0  0
   -6.1019    0.9427   -0.0011 H   0  0  0  0  0  0  0  0  0  0  0  0
   -4.0408    0.2648   -0.0009 C   0  0  0  0  0  0  0  0  0  0  0  0
   -3.6045    1.2742   -0.0014 H   0  0  0  0  0  0  0  0  0  0  0  0
  2 22  1  0  0  0  0
  4  3  1  0  0  0  0
  5  6  1  0  0  0  0
  5 17  1  0  0  0  0
  7  1  1  1  0  0  0
  7  8  1  0  0  0  0
  8 17  2  0  0  0  0
  9 10  1  0  0  0  0
  9  8  1  0  0  0  0
 11  9  2  0  0  0  0
 12 11  1  0  0  0  0
 13 15  2  0  0  0  0
 13 11  1  0  0  0  0
 14 13  1  0  0  0  0
 15  7  1  0  0  0  0
 16 15  1  0  0  0  0
 17 18  1  0  0  0  0
 18 20  1  0  0  0  0
 18 19  1  0  0  0  0
 21 18  1  0  0  0  0
 22 23  1  0  0  0  0
 22  6  2  0  0  0  0
 23 24  1  0  0  0  0
 24 25  2  0  0  0  0
 24  3  1  0  0  0  0
 25 26  1  0  0  0  0
 27 28  1  0  0  0  0
 27 25  1  0  0  0  0
 29 27  2  0  0  0  0
 30 29  1  0  0  0  0
 31 29  1  0  0  0  0
 31 23  2  0  0  0  0
 32 31  1  0  0  0  0
M  CHG  1   2  -1
M  END
