2,5,6
 OpenBabel05122313063D

 15 15  0  0  1  0  0  0  0  0999 V2000
    5.6930   -0.0716   -0.0942 Cl  0  0  0  0  0  0  0  0  0  0  0  0
   -0.3430    1.9006    0.0442 O   0  5  0  0  0  0  0  0  0  0  0  0
    1.1956   -3.5322    0.0762 O   0  5  0  0  0  0  0  0  0  0  0  0
    1.2745    3.4893   -0.1080 O   0  0  0  0  0  0  0  0  0  0  0  0
   -0.3875   -1.9038    0.0903 O   0  0  0  0  0  0  0  0  0  0  0  0
    1.2251   -0.0215    0.0203 N   0  0  0  0  0  2  0  0  0  0  0  0
    0.8620   -2.3583    0.0761 C   0  0  0  0  0  0  0  0  0  0  0  0
    0.9198    2.3252   -0.0400 C   0  0  0  0  0  0  0  0  0  0  0  0
    1.8817    1.1550   -0.0305 C   0  0  2  0  0  3  0  0  0  0  0  0
    1.8565   -1.2129    0.0382 C   0  0  0  0  0  0  0  0  0  0  0  0
    3.2501   -1.2709    0.0047 C   0  0  0  0  0  0  0  0  0  0  0  0
    3.7535   -2.2477    0.0183 H   0  0  0  0  0  0  0  0  0  0  0  0
    3.9613   -0.0525   -0.0492 C   0  0  0  0  0  0  0  0  0  0  0  0
    3.2766    1.1818   -0.0687 C   0  0  0  0  0  0  0  0  0  0  0  0
    3.8018    2.1459   -0.1130 H   0  0  0  0  0  0  0  0  0  0  0  0
  1 13  1  0  0  0  0
  4  8  2  0  0  0  0
  6 10  1  0  0  0  0
  7  3  1  0  0  0  0
  7  5  2  0  0  0  0
  8  2  1  0  0  0  0
  9  8  1  6  0  0  0
  9  6  1  0  0  0  0
 10  7  1  0  0  0  0
 11 12  1  0  0  0  0
 11 10  2  0  0  0  0
 13 11  1  0  0  0  0
 14 13  2  0  0  0  0
 14  9  1  0  0  0  0
 15 14  1  0  0  0  0
M  CHG  2   2  -1   3  -1
M  END
