2,4,6
 OpenBabel05122313063D

 32 33  0  0  0  0  0  0  0  0999 V2000
   -3.9763    1.7537    0.2166 Cl  0  0  0  0  0  0  0  0  0  0  0  0
    0.2118   -1.2932   -0.0154 N   0  0  0  0  0  2  0  0  0  0  0  0
   -1.0710   -1.7217    0.0964 N   0  0  0  0  0  0  0  0  0  0  0  0
    2.1829    0.5098    0.1957 O   0  5  0  0  0  0  0  0  0  0  0  0
    4.7579    1.0781    0.1617 O   0  0  0  0  0  0  0  0  0  0  0  0
   -1.4493    0.5026   -0.3459 O   0  5  0  0  0  0  0  0  0  0  0  0
    2.5773   -1.8640    0.0528 C   0  0  0  0  0  0  0  0  0  0  0  0
    3.0256   -0.5111    0.1008 C   0  0  0  0  0  0  0  0  0  0  0  0
    4.4304   -0.2391    0.1023 C   0  0  0  0  0  0  0  0  0  0  0  0
    5.3455   -1.3013    0.0505 C   0  0  0  0  0  0  0  0  0  0  0  0
    6.4247   -1.0978    0.0436 H   0  0  0  0  0  0  0  0  0  0  0  0
    4.8922   -2.6383    0.0072 C   0  0  0  0  0  0  0  0  0  0  0  0
    5.6273   -3.4552   -0.0328 H   0  0  0  0  0  0  0  0  0  0  0  0
    3.5308   -2.9190    0.0167 C   0  0  0  0  0  0  0  0  0  0  0  0
    3.1704   -3.9583   -0.0137 H   0  0  0  0  0  0  0  0  0  0  0  0
    1.1709   -2.1788    0.0987 C   0  0  0  0  0  3  0  0  0  0  0  0
    0.8669   -3.2336    0.2367 H   0  0  0  0  0  0  0  0  0  0  0  0
   -1.8911   -0.6985   -0.1067 C   0  0  0  0  0  0  0  0  0  0  0  0
   -3.3525   -0.9536   -0.0656 C   0  0  0  0  0  0  0  0  0  0  0  0
   -4.3459    0.0528    0.0471 C   0  0  0  0  0  0  0  0  0  0  0  0
   -5.7115   -0.2844    0.0620 C   0  0  0  0  0  0  0  0  0  0  0  0
   -6.4511    0.5232    0.1534 H   0  0  0  0  0  0  0  0  0  0  0  0
   -6.1124   -1.6217   -0.0312 C   0  0  0  0  0  0  0  0  0  0  0  0
   -7.1848   -1.8685   -0.0220 H   0  0  0  0  0  0  0  0  0  0  0  0
   -5.1453   -2.6359   -0.1310 C   0  0  0  0  0  0  0  0  0  0  0  0
   -5.4491   -3.6907   -0.2012 H   0  0  0  0  0  0  0  0  0  0  0  0
   -3.7911   -2.2985   -0.1457 C   0  0  0  0  0  0  0  0  0  0  0  0
   -3.0114   -3.0690   -0.2221 H   0  0  0  0  0  0  0  0  0  0  0  0
    6.1284    1.4221    0.1465 C   0  0  0  0  0  0  0  0  0  0  0  0
    6.6736    1.0007    1.0219 H   0  0  0  0  0  0  0  0  0  0  0  0
    6.1750    2.5259    0.1914 H   0  0  0  0  0  0  0  0  0  0  0  0
    6.6329    1.0767   -0.7843 H   0  0  0  0  0  0  0  0  0  0  0  0
  2  3  1  0  0  0  0
  2 16  1  0  0  0  0
  6 18  1  0  0  0  0
  7 16  1  0  0  0  0
  7  8  1  0  0  0  0
  8  9  2  0  0  0  0
  8  4  1  0  0  0  0
  9  5  1  0  0  0  0
 10  9  1  0  0  0  0
 11 10  1  0  0  0  0
 12 14  1  0  0  0  0
 12 10  2  0  0  0  0
 13 12  1  0  0  0  0
 14  7  2  0  0  0  0
 15 14  1  0  0  0  0
 16 17  1  0  0  0  0
 18 19  1  0  0  0  0
 18  3  2  0  0  0  0
 19 20  1  0  0  0  0
 20 21  2  0  0  0  0
 20  1  1  0  0  0  0
 21 22  1  0  0  0  0
 23 24  1  0  0  0  0
 23 21  1  0  0  0  0
 25 23  2  0  0  0  0
 26 25  1  0  0  0  0
 27 25  1  0  0  0  0
 27 19  2  0  0  0  0
 28 27  1  0  0  0  0
 29  5  1  0  0  0  0
 29 31  1  0  0  0  0
 29 30  1  0  0  0  0
 32 29  1  0  0  0  0
M  CHG  2   4  -1   6  -1
M  END
