2,5,6
 OpenBabel05122313063D

 29 30  0  0  0  0  0  0  0  0999 V2000
    7.2853    1.8369   -0.0119 Br  0  0  0  0  0  0  0  0  0  0  0  0
   -1.7058    1.2330    0.0297 O   0  5  0  0  0  0  0  0  0  0  0  0
   -5.8747    6.0242   -0.0254 O   0  0  0  0  0  0  0  0  0  0  0  0
   -5.5749    6.9508   -0.0797 H   0  0  0  0  0  0  0  0  0  0  0  0
    1.7880   -0.7298    0.0430 O   0  5  0  0  0  0  0  0  0  0  0  0
    0.7394    2.0221    0.0138 N   0  0  0  0  0  2  0  0  0  0  0  0
   -0.1945    3.0114    0.0078 N   0  0  0  0  0  0  0  0  0  0  0  0
   -1.4263    2.5219    0.0149 C   0  0  0  0  0  0  0  0  0  0  0  0
   -2.5706    3.4552    0.0053 C   0  0  0  0  0  0  0  0  0  0  0  0
   -3.8923    2.9589    0.0719 C   0  0  0  0  0  0  0  0  0  0  0  0
   -4.0430    1.8720    0.1386 H   0  0  0  0  0  0  0  0  0  0  0  0
   -4.9864    3.8257    0.0611 C   0  0  0  0  0  0  0  0  0  0  0  0
   -6.0176    3.4481    0.1145 H   0  0  0  0  0  0  0  0  0  0  0  0
   -4.7795    5.2186   -0.0166 C   0  0  0  0  0  0  0  0  0  0  0  0
   -3.4630    5.7242   -0.0809 C   0  0  0  0  0  0  0  0  0  0  0  0
   -3.2989    6.8133   -0.1409 H   0  0  0  0  0  0  0  0  0  0  0  0
   -2.3728    4.8514   -0.0690 C   0  0  0  0  0  0  0  0  0  0  0  0
   -1.3442    5.2351   -0.1184 H   0  0  0  0  0  0  0  0  0  0  0  0
    2.0202    2.3144   -0.0008 C   0  0  0  0  0  0  0  0  0  0  0  0
    2.2693    3.3911   -0.0211 H   0  0  0  0  0  0  0  0  0  0  0  0
    3.0964    1.3608    0.0091 C   0  0  0  0  0  0  0  0  0  0  0  0
    2.9285   -0.0775    0.0335 C   0  0  0  0  0  0  0  0  0  0  0  0
    4.1108   -0.8797    0.0490 C   0  0  0  0  0  0  0  0  0  0  0  0
    3.9680   -1.9699    0.0751 H   0  0  0  0  0  0  0  0  0  0  0  0
    5.3854   -0.3280    0.0358 C   0  0  0  0  0  0  0  0  0  0  0  0
    6.2734   -0.9762    0.0485 H   0  0  0  0  0  0  0  0  0  0  0  0
    5.5357    1.0777    0.0076 C   0  0  0  0  0  0  0  0  0  0  0  0
    4.4177    1.8997   -0.0042 C   0  0  0  0  0  3  0  0  0  0  0  0
    4.5408    2.9924   -0.0238 H   0  0  0  0  0  0  0  0  0  0  0  0
  1 27  1  0  0  0  0
  3 14  1  0  0  0  0
  4  3  1  0  0  0  0
  7  6  1  0  0  0  0
  7  8  2  0  0  0  0
  8  2  1  0  0  0  0
  9  8  1  0  0  0  0
  9 10  1  0  0  0  0
 10 11  1  0  0  0  0
 12 10  2  0  0  0  0
 12 13  1  0  0  0  0
 14 12  1  0  0  0  0
 15 17  1  0  0  0  0
 15 14  2  0  0  0  0
 16 15  1  0  0  0  0
 17  9  2  0  0  0  0
 18 17  1  0  0  0  0
 19 21  2  0  0  0  0
 19  6  1  0  0  0  0
 20 19  1  0  0  0  0
 21 22  1  0  0  0  0
 22  5  1  0  0  0  0
 22 23  2  0  0  0  0
 23 24  1  0  0  0  0
 25 26  1  0  0  0  0
 25 23  1  0  0  0  0
 27 25  2  0  0  0  0
 28 27  1  0  0  0  0
 28 21  1  0  0  0  0
 29 28  1  0  0  0  0
M  CHG  2   2  -1   5  -1
M  END
