1,2,4
 OpenBabel05122313063D

 32 33  0  0  0  0  0  0  0  0999 V2000
   -1.3715    0.3401   -0.0008 O   0  5  0  0  0  0  0  0  0  0  0  0
    2.4903   -0.3294    0.0006 O   0  5  0  0  0  0  0  0  0  0  0  0
   -4.0059    0.2990   -0.0006 O   0  0  0  0  0  0  0  0  0  0  0  0
    1.0041    1.8181   -0.0001 N   0  0  0  0  0  2  0  0  0  0  0  0
   -1.9816    1.5063   -0.0003 C   0  0  0  0  0  0  0  0  0  0  0  0
   -3.4140    1.5239   -0.0002 C   0  0  0  0  0  0  0  0  0  0  0  0
   -4.1029    2.7463    0.0002 C   0  0  0  0  0  0  0  0  0  0  0  0
   -5.2009    2.7603    0.0003 H   0  0  0  0  0  0  0  0  0  0  0  0
   -3.3965    3.9680    0.0004 C   0  0  0  0  0  0  0  0  0  0  0  0
   -3.9543    4.9154    0.0008 H   0  0  0  0  0  0  0  0  0  0  0  0
   -2.0060    3.9683    0.0003 C   0  0  0  0  0  0  0  0  0  0  0  0
   -1.4468    4.9165    0.0005 H   0  0  0  0  0  0  0  0  0  0  0  0
   -1.2800    2.7460   -0.0001 C   0  0  0  0  0  0  0  0  0  0  0  0
    0.1609    2.8152   -0.0001 C   0  0  0  0  0  3  0  0  0  0  0  0
    0.5696    3.8431   -0.0001 H   0  0  0  0  0  0  0  0  0  0  0  0
    2.4042    2.0336   -0.0001 C   0  0  0  0  0  0  0  0  0  0  0  0
    3.1589    0.8297    0.0004 C   0  0  0  0  0  0  0  0  0  0  0  0
    4.5652    0.8763    0.0006 C   0  0  0  0  0  0  0  0  0  0  0  0
    5.1223   -0.0712    0.0010 H   0  0  0  0  0  0  0  0  0  0  0  0
    5.2156    2.1171    0.0003 C   0  0  0  0  0  0  0  0  0  0  0  0
    6.3154    2.1554    0.0005 H   0  0  0  0  0  0  0  0  0  0  0  0
    4.4724    3.3122   -0.0002 C   0  0  0  0  0  0  0  0  0  0  0  0
    4.9880    4.2836   -0.0005 H   0  0  0  0  0  0  0  0  0  0  0  0
    3.0713    3.2724   -0.0004 C   0  0  0  0  0  0  0  0  0  0  0  0
    2.5078    4.2165   -0.0009 H   0  0  0  0  0  0  0  0  0  0  0  0
   -5.4293    0.2217   -0.0002 C   0  0  0  0  0  0  0  0  0  0  0  0
   -5.8349    0.7440   -0.8979 H   0  0  0  0  0  0  0  0  0  0  0  0
   -5.8344    0.7437    0.8979 H   0  0  0  0  0  0  0  0  0  0  0  0
   -5.8222   -1.2434   -0.0004 C   0  0  0  0  0  0  0  0  0  0  0  0
   -6.9257   -1.3409   -0.0002 H   0  0  0  0  0  0  0  0  0  0  0  0
   -5.4267   -1.7589    0.8969 H   0  0  0  0  0  0  0  0  0  0  0  0
   -5.4270   -1.7585   -0.8980 H   0  0  0  0  0  0  0  0  0  0  0  0
  1  5  1  0  0  0  0
  3  6  1  0  0  0  0
  3 26  1  0  0  0  0
  4 14  1  0  0  0  0
  4 16  1  0  0  0  0
  5  6  2  0  0  0  0
  5 13  1  0  0  0  0
  6  7  1  0  0  0  0
  7  8  1  0  0  0  0
  7  9  2  0  0  0  0
  9 10  1  0  0  0  0
 11  9  1  0  0  0  0
 11 12  1  0  0  0  0
 13 11  2  0  0  0  0
 14 15  1  0  0  0  0
 14 13  1  0  0  0  0
 16 17  1  0  0  0  0
 17  2  1  0  0  0  0
 17 18  2  0  0  0  0
 18 19  1  0  0  0  0
 20 21  1  0  0  0  0
 20 18  1  0  0  0  0
 22 20  2  0  0  0  0
 23 22  1  0  0  0  0
 24 22  1  0  0  0  0
 24 16  2  0  0  0  0
 25 24  1  0  0  0  0
 26 28  1  0  0  0  0
 27 26  1  0  0  0  0
 29 30  1  0  0  0  0
 29 26  1  0  0  0  0
 29 31  1  0  0  0  0
 32 29  1  0  0  0  0
M  CHG  2   1  -1   2  -1
M  END
