1,2,3
 OpenBabel05122313063D

 34 36  0  0  0  0  0  0  0  0999 V2000
    0.4466    0.4614   -0.0769 N   0  0  0  0  0  2  0  0  0  0  0  0
    2.6899   -0.8177   -0.3643 O   0  5  0  0  0  0  0  0  0  0  0  0
   -0.9100   -1.8977    0.1183 O   0  5  0  0  0  0  0  0  0  0  0  0
    2.7965    0.5119   -0.2612 C   0  0  0  0  0  0  0  0  0  0  0  0
    4.0436    1.1622   -0.3079 C   0  0  0  0  0  0  0  0  0  0  0  0
    4.9433    0.5520   -0.4746 H   0  0  0  0  0  0  0  0  0  0  0  0
    4.1283    2.5537   -0.1300 C   0  0  0  0  0  0  0  0  0  0  0  0
    2.9373    3.2856    0.1015 C   0  0  0  0  0  0  0  0  0  0  0  0
    2.9945    4.3739    0.2566 H   0  0  0  0  0  0  0  0  0  0  0  0
    1.6918    2.6524    0.1391 C   0  0  0  0  0  0  0  0  0  0  0  0
    0.7889    3.2514    0.3297 H   0  0  0  0  0  0  0  0  0  0  0  0
    1.6028    1.2595   -0.0596 C   0  0  0  0  0  0  0  0  0  0  0  0
   -0.7626    0.9746   -0.0136 C   0  0  0  0  0  3  0  0  0  0  0  0
   -0.8398    2.0749    0.0298 H   0  0  0  0  0  0  0  0  0  0  0  0
   -1.9999    0.2519    0.0136 C   0  0  0  0  0  0  0  0  0  0  0  0
   -2.0109   -1.1701    0.0980 C   0  0  0  0  0  0  0  0  0  0  0  0
   -3.2468   -1.8779    0.2015 C   0  0  0  0  0  0  0  0  0  0  0  0
   -3.1949   -2.9731    0.2746 H   0  0  0  0  0  0  0  0  0  0  0  0
   -4.4452   -1.1982    0.2070 C   0  0  0  0  0  0  0  0  0  0  0  0
   -5.3927   -1.7540    0.2862 H   0  0  0  0  0  0  0  0  0  0  0  0
   -4.4976    0.2268    0.1053 C   0  0  0  0  0  0  0  0  0  0  0  0
   -5.7457    0.9093    0.0986 C   0  0  0  0  0  0  0  0  0  0  0  0
   -6.6679    0.3132    0.1802 H   0  0  0  0  0  0  0  0  0  0  0  0
   -5.8064    2.2912   -0.0117 C   0  0  0  0  0  0  0  0  0  0  0  0
   -6.7765    2.8095   -0.0171 H   0  0  0  0  0  0  0  0  0  0  0  0
   -4.6039    3.0287   -0.1243 C   0  0  0  0  0  0  0  0  0  0  0  0
   -4.6409    4.1243   -0.2217 H   0  0  0  0  0  0  0  0  0  0  0  0
   -3.3705    2.3853   -0.1196 C   0  0  0  0  0  0  0  0  0  0  0  0
   -2.4667    3.0009   -0.2248 H   0  0  0  0  0  0  0  0  0  0  0  0
   -3.2678    0.9705    0.0015 C   0  0  0  0  0  0  0  0  0  0  0  0
    5.4565    3.2624   -0.2025 C   0  0  0  0  0  0  0  0  0  0  0  0
    5.5351    4.0597    0.5637 H   0  0  0  0  0  0  0  0  0  0  0  0
    5.5887    3.7521   -1.1915 H   0  0  0  0  0  0  0  0  0  0  0  0
    6.3034    2.5629   -0.0651 H   0  0  0  0  0  0  0  0  0  0  0  0
  1 12  1  0  0  0  0
  1 13  1  0  0  0  0
  2  4  1  0  0  0  0
  4 12  1  0  0  0  0
  5  4  2  0  0  0  0
  5  7  1  0  0  0  0
  6  5  1  0  0  0  0
  7  8  2  0  0  0  0
  8 10  1  0  0  0  0
  8  9  1  0  0  0  0
 10 11  1  0  0  0  0
 12 10  2  0  0  0  0
 13 15  1  0  0  0  0
 13 14  1  0  0  0  0
 15 16  1  0  0  0  0
 16  3  1  0  0  0  0
 16 17  2  0  0  0  0
 17 19  1  0  0  0  0
 17 18  1  0  0  0  0
 19 20  1  0  0  0  0
 21 19  2  0  0  0  0
 22 21  1  0  0  0  0
 22 23  1  0  0  0  0
 24 22  2  0  0  0  0
 25 24  1  0  0  0  0
 26 28  2  0  0  0  0
 26 24  1  0  0  0  0
 27 26  1  0  0  0  0
 28 30  1  0  0  0  0
 29 28  1  0  0  0  0
 30 15  2  0  0  0  0
 30 21  1  0  0  0  0
 31  7  1  0  0  0  0
 31 34  1  0  0  0  0
 31 32  1  0  0  0  0
 33 31  1  0  0  0  0
M  CHG  2   2  -1   3  -1
M  END
