3,4,6
 OpenBabel05122313063D

 49 52  0  0  1  0  0  0  0  0999 V2000
    4.7073   -0.8824    0.0679 O   0  0  0  0  0  0  0  0  0  0  0  0
    3.6918   -0.9812    0.0867 H   0  0  0  0  0  0  0  0  0  0  0  0
    1.5744    1.9317   -0.0355 O   0  5  0  0  0  0  0  0  0  0  0  0
   -1.7842    0.3900    0.1524 O   0  5  0  0  0  0  0  0  0  0  0  0
    2.2281   -0.2637    0.0379 N   0  0  0  0  0  0  0  0  0  0  0  0
    0.8696   -0.4539    0.0180 N   0  0  0  0  0  2  0  0  0  0  0  0
   -3.0922   -2.8622   -0.0822 N   0  0  0  0  0  0  0  0  0  0  0  0
   -3.2031   -1.4952    0.0493 N   0  0  0  0  0  0  0  0  0  0  0  0
    4.9664    0.4270    0.0024 C   0  0  0  0  0  0  0  0  0  0  0  0
    6.3159    0.8517   -0.0275 C   0  0  0  0  0  0  0  0  0  0  0  0
    7.0945    0.0760    0.0064 H   0  0  0  0  0  0  0  0  0  0  0  0
    6.6381    2.2085   -0.0995 C   0  0  0  0  0  0  0  0  0  0  0  0
    7.6969    2.5101   -0.1225 H   0  0  0  0  0  0  0  0  0  0  0  0
    5.6264    3.1900   -0.1444 C   0  0  0  0  0  0  0  0  0  0  0  0
    5.8872    4.2566   -0.2055 H   0  0  0  0  0  0  0  0  0  0  0  0
    4.2894    2.7906   -0.1137 C   0  0  0  0  0  0  0  0  0  0  0  0
    3.4748    3.5282   -0.1557 H   0  0  0  0  0  0  0  0  0  0  0  0
    3.9352    1.4246   -0.0372 C   0  0  0  0  0  0  0  0  0  0  0  0
    2.5258    1.0266   -0.0095 C   0  0  0  0  0  0  0  0  0  0  0  0
    0.4026   -1.7071    0.0231 C   0  0  1  0  0  3  0  0  0  0  0  0
    1.3723   -2.8413    0.0356 C   0  0  0  0  0  0  0  0  0  0  0  0
    2.1757   -3.1156   -1.0899 C   0  0  0  0  0  0  0  0  0  0  0  0
    2.0914   -2.4789   -1.9827 H   0  0  0  0  0  0  0  0  0  0  0  0
    3.0792   -4.1862   -1.0653 C   0  0  0  0  0  0  0  0  0  0  0  0
    3.7032   -4.3931   -1.9476 H   0  0  0  0  0  0  0  0  0  0  0  0
    3.1952   -4.9865    0.0831 C   0  0  0  0  0  0  0  0  0  0  0  0
    3.9099   -5.8230    0.1018 H   0  0  0  0  0  0  0  0  0  0  0  0
    2.4046   -4.7114    1.2092 C   0  0  0  0  0  0  0  0  0  0  0  0
    2.4984   -5.3296    2.1148 H   0  0  0  0  0  0  0  0  0  0  0  0
    1.4943   -3.6442    1.1863 C   0  0  0  0  0  0  0  0  0  0  0  0
    0.8746   -3.4206    2.0677 H   0  0  0  0  0  0  0  0  0  0  0  0
   -1.9598   -0.8901    0.0950 C   0  0  0  0  0  0  0  0  0  0  0  0
   -1.0022   -1.9420    0.0272 C   0  0  0  0  0  0  0  0  0  0  0  0
   -1.7960   -3.1451   -0.0943 C   0  0  0  0  0  0  0  0  0  0  0  0
   -1.3533   -4.5657   -0.2442 C   0  0  0  0  0  0  0  0  0  0  0  0
   -2.2349   -5.1941   -0.4706 H   0  0  0  0  0  0  0  0  0  0  0  0
   -0.8724   -4.9491    0.6781 H   0  0  0  0  0  0  0  0  0  0  0  0
   -0.6069   -4.6751   -1.0560 H   0  0  0  0  0  0  0  0  0  0  0  0
   -4.4827   -0.8929    0.0550 C   0  0  0  0  0  0  0  0  0  0  0  0
   -4.6715    0.4227    0.5306 C   0  0  0  0  0  0  0  0  0  0  0  0
   -3.8164    0.9870    0.9205 H   0  0  0  0  0  0  0  0  0  0  0  0
   -5.9550    0.9870    0.5102 C   0  0  0  0  0  0  0  0  0  0  0  0
   -6.0936    2.0127    0.8858 H   0  0  0  0  0  0  0  0  0  0  0  0
   -7.0553    0.2572    0.0347 C   0  0  0  0  0  0  0  0  0  0  0  0
   -8.0593    0.7069    0.0244 H   0  0  0  0  0  0  0  0  0  0  0  0
   -6.8612   -1.0583   -0.4190 C   0  0  0  0  0  0  0  0  0  0  0  0
   -7.7159   -1.6462   -0.7872 H   0  0  0  0  0  0  0  0  0  0  0  0
   -5.5865   -1.6365   -0.4134 C   0  0  0  0  0  0  0  0  0  0  0  0
   -5.4139   -2.6642   -0.7575 H   0  0  0  0  0  0  0  0  0  0  0  0
  1  2  1  0  0  0  0
  3 19  1  0  0  0  0
  6  5  1  0  0  0  0
  7  8  1  0  0  0  0
  8 39  1  0  0  0  0
  8 32  1  0  0  0  0
  9  1  1  0  0  0  0
 10  9  1  0  0  0  0
 10 11  1  0  0  0  0
 12 10  2  0  0  0  0
 13 12  1  0  0  0  0
 14 16  2  0  0  0  0
 14 12  1  0  0  0  0
 15 14  1  0  0  0  0
 16 18  1  0  0  0  0
 17 16  1  0  0  0  0
 18 19  1  0  0  0  0
 18  9  2  0  0  0  0
 19  5  2  0  0  0  0
 20  6  1  1  0  0  0
 20 33  1  0  0  0  0
 20 21  1  0  0  0  0
 21 30  1  0  0  0  0
 22 24  1  0  0  0  0
 22 21  2  0  0  0  0
 23 22  1  0  0  0  0
 24 26  2  0  0  0  0
 25 24  1  0  0  0  0
 26 27  1  0  0  0  0
 26 28  1  0  0  0  0
 28 29  1  0  0  0  0
 30 28  2  0  0  0  0
 30 31  1  0  0  0  0
 32  4  1  0  0  0  0
 33 32  2  0  0  0  0
 34  7  2  0  0  0  0
 34 33  1  0  0  0  0
 35 34  1  0  0  0  0
 35 37  1  0  0  0  0
 36 35  1  0  0  0  0
 38 35  1  0  0  0  0
 39 40  1  0  0  0  0
 40 41  1  0  0  0  0
 42 40  2  0  0  0  0
 42 43  1  0  0  0  0
 44 42  1  0  0  0  0
 45 44  1  0  0  0  0
 46 48  1  0  0  0  0
 46 44  2  0  0  0  0
 47 46  1  0  0  0  0
 48 39  2  0  0  0  0
 49 48  1  0  0  0  0
M  CHG  2   3  -1   4  -1
M  END
