1,3,4
 OpenBabel05122313063D

 34 35  0  0  0  0  0  0  0  0999 V2000
    0.6594   -1.3821   -0.1905 N   0  0  0  0  0  2  0  0  0  0  0  0
   -0.5533   -1.9500    0.0583 N   0  0  0  0  0  0  0  0  0  0  0  0
    2.3488    0.6200   -0.6335 O   0  5  0  0  0  0  0  0  0  0  0  0
   -1.2230   -0.1292   -1.1655 O   0  5  0  0  0  0  0  0  0  0  0  0
    3.0714   -1.5197    0.1633 C   0  0  0  0  0  0  0  0  0  0  0  0
    3.3350   -0.1839   -0.2807 C   0  0  0  0  0  0  0  0  0  0  0  0
    4.6723    0.2781   -0.2893 C   0  0  0  0  0  0  0  0  0  0  0  0
    4.8616    1.3077   -0.6242 H   0  0  0  0  0  0  0  0  0  0  0  0
    5.7114   -0.5606    0.1149 C   0  0  0  0  0  0  0  0  0  0  0  0
    6.7447   -0.1783    0.0908 H   0  0  0  0  0  0  0  0  0  0  0  0
    5.4782   -1.8887    0.5560 C   0  0  0  0  0  0  0  0  0  0  0  0
    4.1550   -2.3378    0.5783 C   0  0  0  0  0  0  0  0  0  0  0  0
    3.9327   -3.3616    0.9211 H   0  0  0  0  0  0  0  0  0  0  0  0
    6.6259   -2.7706    0.9790 C   0  0  0  0  0  0  0  0  0  0  0  0
    7.2191   -2.3034    1.7928 H   0  0  0  0  0  0  0  0  0  0  0  0
    7.3266   -2.9547    0.1374 H   0  0  0  0  0  0  0  0  0  0  0  0
    6.2716   -3.7550    1.3413 H   0  0  0  0  0  0  0  0  0  0  0  0
    1.7250   -2.0095    0.2588 C   0  0  0  0  0  3  0  0  0  0  0  0
    1.5427   -2.9795    0.7574 H   0  0  0  0  0  0  0  0  0  0  0  0
   -1.5048   -1.2216   -0.5063 C   0  0  0  0  0  0  0  0  0  0  0  0
   -2.9183   -1.6321   -0.3881 C   0  0  0  0  0  0  0  0  0  0  0  0
   -3.2687   -2.8105    0.3069 C   0  0  0  0  0  0  0  0  0  0  0  0
   -2.4620   -3.4131    0.7498 H   0  0  0  0  0  0  0  0  0  0  0  0
   -4.6092   -3.2069    0.4320 C   0  0  0  0  0  0  0  0  0  0  0  0
   -5.6045   -2.3942   -0.1570 C   0  0  0  0  0  0  0  0  0  0  0  0
   -6.6626   -2.6895   -0.0693 H   0  0  0  0  0  0  0  0  0  0  0  0
   -5.2659   -1.2230   -0.8492 C   0  0  0  0  0  0  0  0  0  0  0  0
   -6.0573   -0.6056   -1.3008 H   0  0  0  0  0  0  0  0  0  0  0  0
   -3.9248   -0.8352   -0.9689 C   0  0  0  0  0  0  0  0  0  0  0  0
   -3.6350    0.0784   -1.5068 H   0  0  0  0  0  0  0  0  0  0  0  0
   -4.9864   -4.4681    1.1690 C   0  0  0  0  0  0  0  0  0  0  0  0
   -4.0983   -4.9689    1.5999 H   0  0  0  0  0  0  0  0  0  0  0  0
   -5.4903   -5.1922    0.4949 H   0  0  0  0  0  0  0  0  0  0  0  0
   -5.6944   -4.2557    1.9970 H   0  0  0  0  0  0  0  0  0  0  0  0
  1  2  1  0  0  0  0
  1 18  1  0  0  0  0
  3  6  1  0  0  0  0
  4 20  1  0  0  0  0
  5 18  1  0  0  0  0
  5 12  1  0  0  0  0
  6  5  2  0  0  0  0
  7  6  1  0  0  0  0
  7  9  2  0  0  0  0
  8  7  1  0  0  0  0
  9 11  1  0  0  0  0
 10  9  1  0  0  0  0
 11 12  2  0  0  0  0
 11 14  1  0  0  0  0
 12 13  1  0  0  0  0
 14 17  1  0  0  0  0
 14 15  1  0  0  0  0
 16 14  1  0  0  0  0
 18 19  1  0  0  0  0
 20 21  1  0  0  0  0
 20  2  2  0  0  0  0
 21 22  1  0  0  0  0
 22 24  2  0  0  0  0
 22 23  1  0  0  0  0
 24 31  1  0  0  0  0
 25 26  1  0  0  0  0
 25 24  1  0  0  0  0
 27 25  2  0  0  0  0
 28 27  1  0  0  0  0
 29 27  1  0  0  0  0
 29 21  2  0  0  0  0
 30 29  1  0  0  0  0
 31 32  1  0  0  0  0
 31 34  1  0  0  0  0
 33 31  1  0  0  0  0
M  CHG  2   3  -1   4  -1
M  END
