1,4,5
 OpenBabel05122313063D

 37 38  0  0  0  0  0  0  0  0999 V2000
    2.3142   -1.6133   -0.3126 N   0  0  0  0  0  2  0  0  0  0  0  0
    1.1053   -2.2071   -0.5801 N   0  0  0  0  0  0  0  0  0  0  0  0
   -7.5861   -0.9711   -0.0976 N   0  0  0  0  0  0  0  0  0  0  0  0
    3.8387    0.4620    0.3348 O   0  5  0  0  0  0  0  0  0  0  0  0
    0.5280   -0.9320    1.2439 O   0  5  0  0  0  0  0  0  0  0  0  0
   -1.9780   -1.0025    0.1007 O   0  0  0  0  0  0  0  0  0  0  0  0
   -8.1278    0.1367   -0.1121 O   0  0  0  0  0  0  0  0  0  0  0  0
   -8.1830   -2.0495   -0.1282 O   0  0  0  0  0  0  0  0  0  0  0  0
    4.6385   -1.3581   -1.0028 C   0  0  0  0  0  0  0  0  0  0  0  0
    4.8368   -0.1219   -0.3060 C   0  0  0  0  0  0  0  0  0  0  0  0
    6.1048    0.5259   -0.3410 C   0  0  0  0  0  0  0  0  0  0  0  0
    7.1426   -0.0877   -1.0547 C   0  0  0  0  0  0  0  0  0  0  0  0
    8.1281    0.4047   -1.0728 H   0  0  0  0  0  0  0  0  0  0  0  0
    6.9622   -1.3051   -1.7471 C   0  0  0  0  0  0  0  0  0  0  0  0
    7.8007   -1.7535   -2.2989 H   0  0  0  0  0  0  0  0  0  0  0  0
    5.7179   -1.9269   -1.7300 C   0  0  0  0  0  0  0  0  0  0  0  0
    5.5533   -2.8713   -2.2715 H   0  0  0  0  0  0  0  0  0  0  0  0
    3.3401   -1.9681   -1.0513 C   0  0  0  0  0  3  0  0  0  0  0  0
    3.1574   -2.7809   -1.7784 H   0  0  0  0  0  0  0  0  0  0  0  0
    0.2298   -1.7696    0.2954 C   0  0  0  0  0  0  0  0  0  0  0  0
   -1.2084   -2.2031    0.1937 C   0  0  0  0  0  0  0  0  0  0  0  0
   -1.3390   -2.8454   -0.7021 H   0  0  0  0  0  0  0  0  0  0  0  0
   -1.5000   -2.7739    1.1048 H   0  0  0  0  0  0  0  0  0  0  0  0
   -3.3269   -1.0765    0.0599 C   0  0  0  0  0  0  0  0  0  0  0  0
   -4.0073    0.1664    0.0543 C   0  0  0  0  0  0  0  0  0  0  0  0
   -3.4127    1.0894    0.0890 H   0  0  0  0  0  0  0  0  0  0  0  0
   -5.3973    0.2020    0.0020 C   0  0  0  0  0  0  0  0  0  0  0  0
   -5.9528    1.1490   -0.0059 H   0  0  0  0  0  0  0  0  0  0  0  0
   -6.1139   -1.0068   -0.0404 C   0  0  0  0  0  0  0  0  0  0  0  0
   -5.4581   -2.2439   -0.0307 C   0  0  0  0  0  0  0  0  0  0  0  0
   -6.0607   -3.1613   -0.0651 H   0  0  0  0  0  0  0  0  0  0  0  0
   -4.0601   -2.2846    0.0189 C   0  0  0  0  0  0  0  0  0  0  0  0
   -3.5495   -3.2564    0.0193 H   0  0  0  0  0  0  0  0  0  0  0  0
    6.2691    1.8285    0.3898 C   0  0  0  0  0  0  0  0  0  0  0  0
    5.5615    2.5913    0.0032 H   0  0  0  0  0  0  0  0  0  0  0  0
    7.2993    2.2198    0.2926 H   0  0  0  0  0  0  0  0  0  0  0  0
    6.0333    1.7106    1.4678 H   0  0  0  0  0  0  0  0  0  0  0  0
  2  1  1  0  0  0  0
  2 20  2  0  0  0  0
  3 29  1  0  0  0  0
  6 21  1  0  0  0  0
  7  3  2  0  0  0  0
  8  3  2  0  0  0  0
  9 10  1  0  0  0  0
 10  4  1  0  0  0  0
 11 10  2  0  0  0  0
 11 34  1  0  0  0  0
 12 11  1  0  0  0  0
 13 12  1  0  0  0  0
 14 16  1  0  0  0  0
 14 12  2  0  0  0  0
 15 14  1  0  0  0  0
 16  9  2  0  0  0  0
 17 16  1  0  0  0  0
 18  9  1  0  0  0  0
 18  1  1  0  0  0  0
 19 18  1  0  0  0  0
 20  5  1  0  0  0  0
 21 20  1  0  0  0  0
 21 23  1  0  0  0  0
 22 21  1  0  0  0  0
 24  6  1  0  0  0  0
 25 24  1  0  0  0  0
 25 26  1  0  0  0  0
 27 25  2  0  0  0  0
 28 27  1  0  0  0  0
 29 30  2  0  0  0  0
 29 27  1  0  0  0  0
 30 32  1  0  0  0  0
 31 30  1  0  0  0  0
 32 33  1  0  0  0  0
 32 24  2  0  0  0  0
 34 37  1  0  0  0  0
 35 34  1  0  0  0  0
 36 34  1  0  0  0  0
M  CHG  2   4  -1   5  -1
M  END
