2,14,17
 OpenBabel05122313063D

 28 29  0  0  0  0  0  0  0  0999 V2000
    1.4484   -1.1060    0.3152 C   0  0  0  0  0  0  0  0  0  0  0  0
    0.2928   -1.7274    0.4746 O   0  5  0  0  0  0  0  0  0  0  0  0
    2.6568   -1.8308    0.4666 C   0  0  0  0  0  0  0  0  0  0  0  0
    2.5871   -2.9072    0.6792 H   0  0  0  0  0  0  0  0  0  0  0  0
    3.8973   -1.2033    0.3456 C   0  0  0  0  0  0  0  0  0  0  0  0
    4.8252   -1.7821    0.4579 H   0  0  0  0  0  0  0  0  0  0  0  0
    3.9610    0.1807    0.0763 C   0  0  0  0  0  0  0  0  0  0  0  0
    5.6580    1.0290   -0.0881 Br  0  0  0  0  0  0  0  0  0  0  0  0
    2.7926    0.9255   -0.0648 C   0  0  0  0  0  0  0  0  0  0  0  0
    2.8451    2.0060   -0.2656 H   0  0  0  0  0  0  0  0  0  0  0  0
    1.5223    0.3016    0.0424 C   0  0  0  0  0  0  0  0  0  0  0  0
    0.3349    1.1131   -0.0506 C   0  0  0  0  0  3  0  0  0  0  0  0
    0.4942    2.2099   -0.0870 H   0  0  0  0  0  0  0  0  0  0  0  0
   -0.8832    0.6411   -0.0900 N   0  0  0  0  0  2  0  0  0  0  0  0
   -2.0307    1.4381   -0.1129 C   0  0  0  0  0  0  0  0  0  0  0  0
   -3.2075    0.6735   -0.3609 C   0  0  0  0  0  0  0  0  0  0  0  0
   -3.0805   -0.6394   -0.4838 O   0  5  0  0  0  0  0  0  0  0  0  0
   -4.4504    1.3409   -0.4532 C   0  0  0  0  0  0  0  0  0  0  0  0
   -5.3548    0.7498   -0.6566 H   0  0  0  0  0  0  0  0  0  0  0  0
   -4.5047    2.7246   -0.2726 C   0  0  0  0  0  0  0  0  0  0  0  0
   -5.4797    3.2342   -0.3353 H   0  0  0  0  0  0  0  0  0  0  0  0
   -3.3451    3.4960    0.0003 C   0  0  0  0  0  0  0  0  0  0  0  0
   -3.4512    4.9873    0.2018 C   0  0  0  0  0  0  0  0  0  0  0  0
   -2.4653    5.4414    0.4202 H   0  0  0  0  0  0  0  0  0  0  0  0
   -4.1312    5.2369    1.0434 H   0  0  0  0  0  0  0  0  0  0  0  0
   -3.8609    5.4903   -0.6995 H   0  0  0  0  0  0  0  0  0  0  0  0
   -2.1119    2.8328    0.0797 C   0  0  0  0  0  0  0  0  0  0  0  0
   -1.2041    3.4141    0.3042 H   0  0  0  0  0  0  0  0  0  0  0  0
  1  3  1  0  0  0  0
  1  2  1  0  0  0  0
  3  4  1  0  0  0  0
  5  6  1  0  0  0  0
  5  3  2  0  0  0  0
  7  5  1  0  0  0  0
  8  7  1  0  0  0  0
  9 11  1  0  0  0  0
  9  7  2  0  0  0  0
 10  9  1  0  0  0  0
 11  1  2  0  0  0  0
 12 11  1  0  0  0  0
 13 12  1  0  0  0  0
 14 12  1  0  0  0  0
 15 14  1  0  0  0  0
 15 27  1  0  0  0  0
 16 15  2  0  0  0  0
 17 16  1  0  0  0  0
 18 16  1  0  0  0  0
 18 20  2  0  0  0  0
 19 18  1  0  0  0  0
 20 22  1  0  0  0  0
 21 20  1  0  0  0  0
 22 27  2  0  0  0  0
 22 23  1  0  0  0  0
 23 24  1  0  0  0  0
 23 25  1  0  0  0  0
 26 23  1  0  0  0  0
 27 28  1  0  0  0  0
M  CHG  2   2  -1  17  -1
M  END
