1,4,7
 OpenBabel05122313063D

 40 41  0  0  1  0  0  0  0  0999 V2000
    0.0521   -1.3366   -0.5432 O   0  5  0  0  0  0  0  0  0  0  0  0
    5.5218   -1.5378   -0.1492 O   0  0  0  0  0  0  0  0  0  0  0  0
    3.4592    0.9611    2.5737 O   0  0  0  0  0  0  0  0  0  0  0  0
   -0.0295    1.3382    2.2401 O   0  5  0  0  0  0  0  0  0  0  0  0
    1.4264    2.1331    3.7867 O   0  0  0  0  0  0  0  0  0  0  0  0
    1.9269   -3.7909   -2.3598 N   0  0  0  0  0  0  0  0  0  0  0  0
    1.8871    0.0513    1.0168 N   0  0  0  0  0  2  0  0  0  0  0  0
   -0.3990   -3.1235   -2.6185 C   0  0  0  0  0  0  0  0  0  0  0  0
    0.9384   -3.0052   -1.9440 C   0  0  0  0  0  0  0  0  0  0  0  0
    1.1022   -2.0270   -0.8829 C   0  0  0  0  0  0  0  0  0  0  0  0
    2.4168   -1.9026   -0.3141 C   0  0  0  0  0  0  0  0  0  0  0  0
    3.4508   -2.7792   -0.7700 C   0  0  0  0  0  0  0  0  0  0  0  0
    4.8464   -2.7879   -0.1809 C   0  0  0  0  0  0  0  0  0  0  0  0
    3.1430   -3.6886   -1.7828 C   0  0  0  0  0  0  0  0  0  0  0  0
    2.7375   -0.8426    0.6130 C   0  0  0  0  0  3  0  0  0  0  0  0
    2.3330    1.2075    1.7825 C   0  0  1  0  0  0  0  0  0  0  0  0
    1.1466    1.5993    2.7068 C   0  0  0  0  0  0  0  0  0  0  0  0
    2.6211    2.3789    0.7803 C   0  0  0  0  0  0  0  0  0  0  0  0
    3.6906    2.0020   -0.2069 C   0  0  0  0  0  0  0  0  0  0  0  0
    5.0572    2.1895    0.0864 C   0  0  0  0  0  0  0  0  0  0  0  0
    6.0500    1.7608   -0.8062 C   0  0  0  0  0  0  0  0  0  0  0  0
    5.6941    1.1315   -2.0119 C   0  0  0  0  0  0  0  0  0  0  0  0
    4.3355    0.9197   -2.3069 C   0  0  0  0  0  0  0  0  0  0  0  0
    3.3441    1.3513   -1.4119 C   0  0  0  0  0  0  0  0  0  0  0  0
   -0.3316   -3.8768   -3.4244 H   0  0  0  0  0  0  0  0  0  0  0  0
   -1.1947   -3.4204   -1.9039 H   0  0  0  0  0  0  0  0  0  0  0  0
   -0.7192   -2.1488   -3.0429 H   0  0  0  0  0  0  0  0  0  0  0  0
    4.8018   -3.1301    0.8774 H   0  0  0  0  0  0  0  0  0  0  0  0
    5.2987   -1.0373   -0.9605 H   0  0  0  0  0  0  0  0  0  0  0  0
    5.4413   -3.5555   -0.7354 H   0  0  0  0  0  0  0  0  0  0  0  0
    3.9260   -4.3730   -2.1584 H   0  0  0  0  0  0  0  0  0  0  0  0
    3.7876   -0.7364    0.9370 H   0  0  0  0  0  0  0  0  0  0  0  0
    3.1590    1.3371    3.4433 H   0  0  0  0  0  0  0  0  0  0  0  0
    2.9276    3.2376    1.4092 H   0  0  0  0  0  0  0  0  0  0  0  0
    1.6754    2.6200    0.2621 H   0  0  0  0  0  0  0  0  0  0  0  0
    5.3366    2.6593    1.0412 H   0  0  0  0  0  0  0  0  0  0  0  0
    7.1119    1.9110   -0.5575 H   0  0  0  0  0  0  0  0  0  0  0  0
    6.4744    0.7990   -2.7143 H   0  0  0  0  0  0  0  0  0  0  0  0
    4.0423    0.4142   -3.2403 H   0  0  0  0  0  0  0  0  0  0  0  0
    2.2805    1.1677   -1.6245 H   0  0  0  0  0  0  0  0  0  0  0  0
  3 33  1  0  0  0  0
  4 17  1  0  0  0  0
  6  9  2  0  0  0  0
  6 14  1  0  0  0  0
  8  9  1  0  0  0  0
  8 26  1  0  0  0  0
  9 10  1  0  0  0  0
 10  1  1  0  0  0  0
 10 11  2  0  0  0  0
 11 15  1  0  0  0  0
 12 11  1  0  0  0  0
 12 13  1  0  0  0  0
 13  2  1  0  0  0  0
 13 28  1  0  0  0  0
 14 12  2  0  0  0  0
 15 32  1  0  0  0  0
 15  7  1  0  0  0  0
 16  7  1  6  0  0  0
 16  3  1  0  0  0  0
 16 17  1  0  0  0  0
 17  5  2  0  0  0  0
 18 34  1  0  0  0  0
 18 16  1  0  0  0  0
 19 20  1  0  0  0  0
 19 18  1  0  0  0  0
 20 36  1  0  0  0  0
 21 37  1  0  0  0  0
 21 20  2  0  0  0  0
 22 21  1  0  0  0  0
 23 22  2  0  0  0  0
 23 24  1  0  0  0  0
 24 19  2  0  0  0  0
 25  8  1  0  0  0  0
 27  8  1  0  0  0  0
 29  2  1  0  0  0  0
 30 13  1  0  0  0  0
 31 14  1  0  0  0  0
 35 18  1  0  0  0  0
 38 22  1  0  0  0  0
 39 23  1  0  0  0  0
 40 24  1  0  0  0  0
M  CHG  2   1  -1   4  -1
M  END
