1,3,6
 OpenBabel05122313063D

 34 34  0  0  1  0  0  0  0  0999 V2000
   -0.9953   -2.4406    0.9187 O   0  5  0  0  0  0  0  0  0  0  0  0
   -2.4080   -3.1555    2.5294 O   0  0  0  0  0  0  0  0  0  0  0  0
    0.1315    0.6748   -0.8482 O   0  0  0  0  0  1  0  0  0  0  0  0
    1.4257    2.7850   -2.1996 O   0  0  0  0  0  0  0  0  0  0  0  0
   -4.1018    1.7640   -1.3429 O   0  0  0  0  0  0  0  0  0  0  0  0
   -1.8567   -0.0371    0.9010 N   0  0  0  0  0  2  0  0  0  0  0  0
   -3.1745   -0.2123   -2.0096 N   0  0  0  0  0  0  0  0  0  0  0  0
   -2.6014    0.3053   -2.6782 H   0  0  0  0  0  0  0  0  0  0  0  0
   -2.9078   -1.1887   -1.8227 H   0  0  0  0  0  0  0  0  0  0  0  0
   -2.0259   -2.2972    1.7531 C   0  0  0  0  0  0  0  0  0  0  0  0
   -2.7900   -0.9825    1.5079 C   0  0  2  0  0  0  0  0  0  0  0  0
   -3.1733   -0.5691    2.4655 H   0  0  0  0  0  0  0  0  0  0  0  0
   -3.9962   -1.3563    0.6015 C   0  0  0  0  0  0  0  0  0  0  0  0
   -4.6943   -1.9235    1.2497 H   0  0  0  0  0  0  0  0  0  0  0  0
   -3.6479   -2.0740   -0.1680 H   0  0  0  0  0  0  0  0  0  0  0  0
   -4.7165   -0.1940   -0.0792 C   0  0  0  0  0  0  0  0  0  0  0  0
   -5.6500   -0.5848   -0.5401 H   0  0  0  0  0  0  0  0  0  0  0  0
   -5.0377    0.5841    0.6415 H   0  0  0  0  0  0  0  0  0  0  0  0
   -3.9581    0.5515   -1.1897 C   0  0  0  0  0  0  0  0  0  0  0  0
   -2.0391    1.2560    0.9982 C   0  0  0  0  0  0  0  0  0  0  0  0
   -2.9033    1.6072    1.5946 H   0  0  0  0  0  0  0  0  0  0  0  0
   -1.2414    2.2663    0.3694 C   0  0  0  0  0  0  0  0  0  0  0  0
   -0.2028    1.9065   -0.5632 C   0  0  2  0  0  3  0  0  0  0  0  0
    0.4766    2.9869   -1.2371 C   0  0  0  0  0  0  0  0  0  0  0  0
    0.1240    4.3131   -0.9732 C   0  0  0  0  0  0  0  0  0  0  0  0
    0.6813    5.0924   -1.5144 H   0  0  0  0  0  0  0  0  0  0  0  0
   -0.9056    4.6461   -0.0662 C   0  0  0  0  0  0  0  0  0  0  0  0
   -1.1674    5.6999    0.1053 H   0  0  0  0  0  0  0  0  0  0  0  0
   -1.5806    3.6298    0.5939 C   0  0  0  0  0  0  0  0  0  0  0  0
   -2.4055    3.8587    1.2856 H   0  0  0  0  0  0  0  0  0  0  0  0
    2.4361    1.8049   -2.0045 C   0  0  0  0  0  0  0  0  0  0  0  0
    2.8675    1.8578   -0.9799 H   0  0  0  0  0  0  0  0  0  0  0  0
    3.2348    2.0368   -2.7366 H   0  0  0  0  0  0  0  0  0  0  0  0
    2.0597    0.7768   -2.1743 H   0  0  0  0  0  0  0  0  0  0  0  0
  1 10  1  0  0  0  0
  4 31  1  0  0  0  0
  4 24  1  0  0  0  0
  5 19  2  0  0  0  0
  6 20  1  0  0  0  0
  6 11  1  0  0  0  0
  7  9  1  0  0  0  0
  7 19  1  0  0  0  0
  8  7  1  0  0  0  0
 10  2  2  0  0  0  0
 11 10  1  0  0  0  0
 11 12  1  1  0  0  0
 13 14  1  0  0  0  0
 13 11  1  0  0  0  0
 15 13  1  0  0  0  0
 16 13  1  0  0  0  0
 16 18  1  0  0  0  0
 17 16  1  0  0  0  0
 19 16  1  0  0  0  0
 20 21  1  0  0  0  0
 22 29  1  0  0  0  0
 22 20  2  0  0  0  0
 23  3  1  6  0  0  0
 23 22  1  0  0  0  0
 24 25  2  0  0  0  0
 24 23  1  0  0  0  0
 25 27  1  0  0  0  0
 26 25  1  0  0  0  0
 27 28  1  0  0  0  0
 27 29  2  0  0  0  0
 29 30  1  0  0  0  0
 31 32  1  0  0  0  0
 33 31  1  0  0  0  0
 34 31  1  0  0  0  0
M  CHG  1   1  -1
M  END
