1,2,4
 OpenBabel05122313063D

 29 30  0  0  0  0  0  0  0  0999 V2000
    2.0163   -0.9547    0.3358 O   0  5  0  0  0  0  0  0  0  0  0  0
   -1.7428   -0.8887   -0.0962 O   0  5  0  0  0  0  0  0  0  0  0  0
    6.4925    0.6492   -0.0629 O   0  0  0  0  0  0  0  0  0  0  0  0
    0.0024    0.8807    0.0226 N   0  0  0  0  0  2  0  0  0  0  0  0
   -1.2706    1.3656    0.0728 N   0  0  0  0  0  0  0  0  0  0  0  0
   -3.5846    0.6415   -0.0198 C   0  0  0  0  0  0  0  0  0  0  0  0
   -2.1356    0.3774   -0.0165 C   0  0  0  0  0  0  0  0  0  0  0  0
    2.8498    0.0719    0.1431 C   0  0  0  0  0  0  0  0  0  0  0  0
    4.7058    2.1989   -0.1325 C   0  0  0  0  0  0  0  0  0  0  0  0
    4.2317   -0.1900    0.1152 C   0  0  0  0  0  0  0  0  0  0  0  0
    2.3772    1.4199    0.0186 C   0  0  0  0  0  0  0  0  0  0  0  0
    0.9820    1.7557    0.0391 C   0  0  0  0  0  3  0  0  0  0  0  0
   -4.4942   -0.4333   -0.1213 C   0  0  0  0  0  0  0  0  0  0  0  0
   -5.8730   -0.1862   -0.1245 C   0  0  0  0  0  0  0  0  0  0  0  0
    3.3421    2.4568   -0.1049 C   0  0  0  0  0  0  0  0  0  0  0  0
   -5.4503    2.2027    0.0759 C   0  0  0  0  0  0  0  0  0  0  0  0
    5.1561    0.8599   -0.0266 C   0  0  0  0  0  0  0  0  0  0  0  0
   -6.3540    1.1295   -0.0254 C   0  0  0  0  0  0  0  0  0  0  0  0
   -4.0723    1.9643    0.0779 C   0  0  0  0  0  0  0  0  0  0  0  0
    5.4468    3.0026   -0.2384 H   0  0  0  0  0  0  0  0  0  0  0  0
    4.5623   -1.2356    0.2106 H   0  0  0  0  0  0  0  0  0  0  0  0
    0.6938    2.8238    0.0564 H   0  0  0  0  0  0  0  0  0  0  0  0
   -4.0992   -1.4561   -0.1985 H   0  0  0  0  0  0  0  0  0  0  0  0
   -6.5787   -1.0267   -0.2052 H   0  0  0  0  0  0  0  0  0  0  0  0
    2.9837    3.4943   -0.1916 H   0  0  0  0  0  0  0  0  0  0  0  0
   -5.8269    3.2340    0.1527 H   0  0  0  0  0  0  0  0  0  0  0  0
   -7.4379    1.3213   -0.0279 H   0  0  0  0  0  0  0  0  0  0  0  0
   -3.3485    2.7877    0.1551 H   0  0  0  0  0  0  0  0  0  0  0  0
    6.6636   -0.3093    0.0054 H   0  0  0  0  0  0  0  0  0  0  0  0
  2  7  1  0  0  0  0
  3 17  1  0  0  0  0
  3 29  1  0  0  0  0
  4 12  1  0  0  0  0
  4  5  1  0  0  0  0
  6  7  1  0  0  0  0
  6 19  1  0  0  0  0
  7  5  2  0  0  0  0
  8  1  1  0  0  0  0
  9 15  2  0  0  0  0
  9 17  1  0  0  0  0
 10  8  1  0  0  0  0
 10 21  1  0  0  0  0
 11 12  1  0  0  0  0
 11  8  2  0  0  0  0
 12 22  1  0  0  0  0
 13  6  2  0  0  0  0
 14 13  1  0  0  0  0
 14 18  2  0  0  0  0
 15 11  1  0  0  0  0
 16 19  2  0  0  0  0
 16 26  1  0  0  0  0
 17 10  2  0  0  0  0
 18 16  1  0  0  0  0
 19 28  1  0  0  0  0
 20  9  1  0  0  0  0
 23 13  1  0  0  0  0
 24 14  1  0  0  0  0
 25 15  1  0  0  0  0
 27 18  1  0  0  0  0
M  CHG  2   1  -1   2  -1
M  END
