1,4,5
 OpenBabel05122313063D

 38 39  0  0  0  0  0  0  0  0999 V2000
    0.3816    1.1608    0.0285 N   0  0  0  0  0  2  0  0  0  0  0  0
    1.7050    1.4602    0.1029 N   0  0  0  0  0  0  0  0  0  0  0  0
   -4.4649   -0.5841    0.1519 O   0  0  0  0  0  0  0  0  0  0  0  0
   -1.8584   -0.3777    0.3040 O   0  5  0  0  0  0  0  0  0  0  0  0
    1.8605   -0.8298   -0.0881 O   0  5  0  0  0  0  0  0  0  0  0  0
    4.4745    1.7371    0.1707 C   0  0  0  0  0  0  0  0  0  0  0  0
    3.7866    2.5894    0.2562 H   0  0  0  0  0  0  0  0  0  0  0  0
    2.4322    0.3600    0.0099 C   0  0  0  0  0  0  0  0  0  0  0  0
    3.9068    0.4469    0.0275 C   0  0  0  0  0  0  0  0  0  0  0  0
   -2.5376    0.7546    0.0952 C   0  0  0  0  0  0  0  0  0  0  0  0
   -1.9018    2.0227   -0.0188 C   0  0  0  0  0  0  0  0  0  0  0  0
    4.7569   -0.6943   -0.0899 C   0  0  0  0  0  0  0  0  0  0  0  0
   -3.9624    0.6674    0.0356 C   0  0  0  0  0  0  0  0  0  0  0  0
   -0.4671    2.1612    0.0361 C   0  0  0  0  0  3  0  0  0  0  0  0
   -0.0370    3.1798    0.0704 H   0  0  0  0  0  0  0  0  0  0  0  0
    6.7021    0.8067    0.0910 C   0  0  0  0  0  0  0  0  0  0  0  0
    7.7956    0.9313    0.1141 H   0  0  0  0  0  0  0  0  0  0  0  0
   -4.7202    1.8394   -0.1264 C   0  0  0  0  0  0  0  0  0  0  0  0
   -5.8157    1.7833   -0.1743 H   0  0  0  0  0  0  0  0  0  0  0  0
    5.8569    1.9222    0.2042 C   0  0  0  0  0  0  0  0  0  0  0  0
    6.2757    2.9333    0.3173 H   0  0  0  0  0  0  0  0  0  0  0  0
   -2.6995    3.1916   -0.1684 C   0  0  0  0  0  0  0  0  0  0  0  0
   -2.1989    4.1678   -0.2498 H   0  0  0  0  0  0  0  0  0  0  0  0
   -4.0854    3.0957   -0.2260 C   0  0  0  0  0  0  0  0  0  0  0  0
   -4.6983    4.0000   -0.3516 H   0  0  0  0  0  0  0  0  0  0  0  0
   -6.1615   -2.2520    0.1867 C   0  0  0  0  0  0  0  0  0  0  0  0
   -5.6572   -2.8160   -0.6222 H   0  0  0  0  0  0  0  0  0  0  0  0
   -7.2513   -2.4388    0.1200 H   0  0  0  0  0  0  0  0  0  0  0  0
   -5.7974   -2.6412    1.1577 H   0  0  0  0  0  0  0  0  0  0  0  0
   -5.8764   -0.7681    0.0620 C   0  0  0  0  0  0  0  0  0  0  0  0
   -6.2464   -0.3693   -0.9114 H   0  0  0  0  0  0  0  0  0  0  0  0
   -6.3850   -0.1921    0.8706 H   0  0  0  0  0  0  0  0  0  0  0  0
    4.2615   -2.1090   -0.2541 C   0  0  0  0  0  0  0  0  0  0  0  0
    3.6203   -2.4219    0.5930 H   0  0  0  0  0  0  0  0  0  0  0  0
    5.1171   -2.8074   -0.3286 H   0  0  0  0  0  0  0  0  0  0  0  0
    3.6327   -2.2218   -1.1590 H   0  0  0  0  0  0  0  0  0  0  0  0
    6.1496   -0.4719   -0.0538 C   0  0  0  0  0  0  0  0  0  0  0  0
    6.8177   -1.3425   -0.1445 H   0  0  0  0  0  0  0  0  0  0  0  0
  1 14  1  0  0  0  0
  1  2  1  0  0  0  0
  5  8  1  0  0  0  0
  6 20  1  0  0  0  0
  6  7  1  0  0  0  0
  8  9  1  0  0  0  0
  8  2  2  0  0  0  0
  9  6  2  0  0  0  0
 10  4  1  0  0  0  0
 11 14  1  0  0  0  0
 11 10  2  0  0  0  0
 12 37  2  0  0  0  0
 12  9  1  0  0  0  0
 13 10  1  0  0  0  0
 13  3  1  0  0  0  0
 14 15  1  0  0  0  0
 16 17  1  0  0  0  0
 16 20  2  0  0  0  0
 18 13  2  0  0  0  0
 19 18  1  0  0  0  0
 20 21  1  0  0  0  0
 22 11  1  0  0  0  0
 23 22  1  0  0  0  0
 24 22  2  0  0  0  0
 24 18  1  0  0  0  0
 25 24  1  0  0  0  0
 26 29  1  0  0  0  0
 27 26  1  0  0  0  0
 28 26  1  0  0  0  0
 30  3  1  0  0  0  0
 30 26  1  0  0  0  0
 30 32  1  0  0  0  0
 31 30  1  0  0  0  0
 33 12  1  0  0  0  0
 33 34  1  0  0  0  0
 35 33  1  0  0  0  0
 36 33  1  0  0  0  0
 37 16  1  0  0  0  0
 38 37  1  0  0  0  0
M  CHG  2   4  -1   5  -1
M  END
