4,6,7
 OpenBabel05122313063D

 28 29  0  0  0  0  0  0  0  0999 V2000
    5.6755   -2.5819    0.1138 Br  0  0  0  0  0  0  0  0  0  0  0  0
    3.4354    2.6717    0.1294 Br  0  0  0  0  0  0  0  0  0  0  0  0
   -5.1433    1.0057    0.8919 Cl  0  0  0  0  0  0  0  0  0  0  0  0
   -0.6959   -1.0830   -0.1597 N   0  0  0  0  0  2  0  0  0  0  0  0
   -1.8659   -1.7647   -0.0275 N   0  0  0  0  0  0  0  0  0  0  0  0
    0.8612    1.0906   -0.0097 O   0  5  0  0  0  0  0  0  0  0  0  0
   -2.6949    0.3279   -0.5201 O   0  5  0  0  0  0  0  0  0  0  0  0
    1.7321   -1.1535   -0.0246 C   0  0  0  0  0  0  0  0  0  0  0  0
    1.8925    0.2714   -0.0081 C   0  0  0  0  0  0  0  0  0  0  0  0
    3.2147    0.7898    0.0659 C   0  0  0  0  0  0  0  0  0  0  0  0
    4.3340   -0.0478    0.0985 C   0  0  0  0  0  0  0  0  0  0  0  0
    5.3420    0.3850    0.1474 H   0  0  0  0  0  0  0  0  0  0  0  0
    4.1509   -1.4443    0.0710 C   0  0  0  0  0  0  0  0  0  0  0  0
    2.8711   -1.9956    0.0205 C   0  0  0  0  0  0  0  0  0  0  0  0
    2.7358   -3.0865    0.0134 H   0  0  0  0  0  0  0  0  0  0  0  0
    0.4190   -1.7518   -0.0092 C   0  0  0  0  0  3  0  0  0  0  0  0
    0.3341   -2.8421    0.1575 H   0  0  0  0  0  0  0  0  0  0  0  0
   -2.8741   -0.9297   -0.2260 C   0  0  0  0  0  0  0  0  0  0  0  0
   -4.2582   -1.4420   -0.0950 C   0  0  0  0  0  0  0  0  0  0  0  0
   -5.3436   -0.6510    0.3559 C   0  0  0  0  0  0  0  0  0  0  0  0
   -6.6373   -1.1902    0.4464 C   0  0  0  0  0  0  0  0  0  0  0  0
   -7.4555   -0.5510    0.8062 H   0  0  0  0  0  0  0  0  0  0  0  0
   -6.8665   -2.5261    0.0927 C   0  0  0  0  0  0  0  0  0  0  0  0
   -7.8852   -2.9363    0.1619 H   0  0  0  0  0  0  0  0  0  0  0  0
   -5.8004   -3.3340   -0.3353 C   0  0  0  0  0  0  0  0  0  0  0  0
   -5.9732   -4.3861   -0.6052 H   0  0  0  0  0  0  0  0  0  0  0  0
   -4.5145   -2.7937   -0.4201 C   0  0  0  0  0  0  0  0  0  0  0  0
   -3.6605   -3.4032   -0.7476 H   0  0  0  0  0  0  0  0  0  0  0  0
  4  5  1  0  0  0  0
  4 16  1  0  0  0  0
  6  9  1  0  0  0  0
  7 18  1  0  0  0  0
  8 16  1  0  0  0  0
  8  9  2  0  0  0  0
  8 14  1  0  0  0  0
  9 10  1  0  0  0  0
 10 11  2  0  0  0  0
 10  2  1  0  0  0  0
 11 12  1  0  0  0  0
 13 11  1  0  0  0  0
 13  1  1  0  0  0  0
 14 13  2  0  0  0  0
 15 14  1  0  0  0  0
 16 17  1  0  0  0  0
 18 19  1  0  0  0  0
 18  5  2  0  0  0  0
 19 20  1  0  0  0  0
 20 21  2  0  0  0  0
 20  3  1  0  0  0  0
 21 22  1  0  0  0  0
 23 24  1  0  0  0  0
 23 21  1  0  0  0  0
 25 23  2  0  0  0  0
 26 25  1  0  0  0  0
 27 25  1  0  0  0  0
 27 19  2  0  0  0  0
 28 27  1  0  0  0  0
M  CHG  2   6  -1   7  -1
M  END
