1,2,3
 OpenBabel05122313063D

 33 34  0  0  1  0  0  0  0  0999 V2000
   -2.3878   -1.0422   -0.5862 O   0  5  0  0  0  0  0  0  0  0  0  0
    1.2870   -1.2200   -0.1122 O   0  5  0  0  0  0  0  0  0  0  0  0
   -0.3651    0.6478   -0.0915 N   0  0  0  0  0  2  0  0  0  0  0  0
    0.9365    1.0489   -0.1171 N   0  0  0  0  0  0  0  0  0  0  0  0
   -1.2815    1.6122   -0.0944 C   0  0  2  0  0  3  0  0  0  0  0  0
   -0.7985    3.0353   -0.1435 C   0  0  0  0  0  0  0  0  0  0  0  0
   -1.6146    3.7615   -0.2814 H   0  0  0  0  0  0  0  0  0  0  0  0
   -0.0776    3.1440   -0.9787 H   0  0  0  0  0  0  0  0  0  0  0  0
   -0.2381    3.2843    0.7820 H   0  0  0  0  0  0  0  0  0  0  0  0
   -2.7055    1.2986   -0.0427 C   0  0  0  0  0  0  0  0  0  0  0  0
   -3.6663    2.3086    0.2423 C   0  0  0  0  0  0  0  0  0  0  0  0
   -5.0339    2.0413    0.2735 C   0  0  0  0  0  0  0  0  0  0  0  0
   -5.4974    0.7395    0.0015 C   0  0  0  0  0  0  0  0  0  0  0  0
   -4.5881   -0.2803   -0.2815 C   0  0  0  0  0  0  0  0  0  0  0  0
   -3.2005   -0.0215   -0.2937 C   0  0  0  0  0  0  0  0  0  0  0  0
    1.7706    0.0143   -0.0882 C   0  0  0  0  0  0  0  0  0  0  0  0
    3.2152    0.1876   -0.0483 C   0  0  0  0  0  0  0  0  0  0  0  0
    4.0340   -0.9717   -0.0379 C   0  0  0  0  0  0  0  0  0  0  0  0
    5.4212   -0.8854    0.0099 C   0  0  0  0  0  0  0  0  0  0  0  0
    6.0267    0.3908    0.0490 C   0  0  0  0  0  0  0  0  0  0  0  0
    5.2552    1.5484    0.0387 C   0  0  0  0  0  0  0  0  0  0  0  0
    3.8337    1.4904   -0.0116 C   0  0  0  0  0  0  0  0  0  0  0  0
    3.0935    2.6289   -0.0272 N   0  0  0  0  0  0  0  0  0  0  0  0
   -3.3242    3.3268    0.4706 H   0  0  0  0  0  0  0  0  0  0  0  0
   -5.7435    2.8465    0.5122 H   0  0  0  0  0  0  0  0  0  0  0  0
   -6.5757    0.5201    0.0156 H   0  0  0  0  0  0  0  0  0  0  0  0
   -4.9146   -1.3075   -0.4960 H   0  0  0  0  0  0  0  0  0  0  0  0
    3.5293   -1.9475   -0.0674 H   0  0  0  0  0  0  0  0  0  0  0  0
    6.0364   -1.7962    0.0176 H   0  0  0  0  0  0  0  0  0  0  0  0
    7.1236    0.4776    0.0879 H   0  0  0  0  0  0  0  0  0  0  0  0
    5.7387    2.5374    0.0689 H   0  0  0  0  0  0  0  0  0  0  0  0
    3.5520    3.5346    0.0312 H   0  0  0  0  0  0  0  0  0  0  0  0
    2.0677    2.5220   -0.0476 H   0  0  0  0  0  0  0  0  0  0  0  0
  1 15  1  0  0  0  0
  2 16  1  0  0  0  0
  4  3  1  0  0  0  0
  4 16  2  0  0  0  0
  5  3  1  1  0  0  0
  5 10  1  0  0  0  0
  6  5  1  0  0  0  0
  6  9  1  0  0  0  0
  7  6  1  0  0  0  0
  8  6  1  0  0  0  0
 10 11  1  0  0  0  0
 11 12  2  0  0  0  0
 11 24  1  0  0  0  0
 12 25  1  0  0  0  0
 13 26  1  0  0  0  0
 13 12  1  0  0  0  0
 14 13  2  0  0  0  0
 15 14  1  0  0  0  0
 15 10  2  0  0  0  0
 16 17  1  0  0  0  0
 17 18  2  0  0  0  0
 17 22  1  0  0  0  0
 18 19  1  0  0  0  0
 19 29  1  0  0  0  0
 19 20  2  0  0  0  0
 20 30  1  0  0  0  0
 21 20  1  0  0  0  0
 21 31  1  0  0  0  0
 22 21  2  0  0  0  0
 23 22  1  0  0  0  0
 23 32  1  0  0  0  0
 27 14  1  0  0  0  0
 28 18  1  0  0  0  0
 33 23  1  0  0  0  0
M  CHG  2   1  -1   2  -1
M  END
