2,4,5
 OpenBabel05122313063D

 32 33  0  0  0  0  0  0  0  0999 V2000
   -3.7938    0.7004   -0.4951 Cl  0  0  0  0  0  0  0  0  0  0  0  0
    1.2503    1.1304    0.0488 N   0  0  0  0  0  2  0  0  0  0  0  0
    0.3180    2.0380    0.4520 N   0  0  0  0  0  0  0  0  0  0  0  0
    2.0980   -1.2401   -0.8142 O   0  5  0  0  0  0  0  0  0  0  0  0
   -0.9148    0.8685   -1.0878 O   0  5  0  0  0  0  0  0  0  0  0  0
    7.1485   -0.1272    1.1379 O   0  0  0  0  0  0  0  0  0  0  0  0
    3.5290    0.3050    0.3362 C   0  0  0  0  0  0  0  0  0  0  0  0
    3.2980   -0.9247   -0.3580 C   0  0  0  0  0  0  0  0  0  0  0  0
    4.3752   -1.8340   -0.5052 C   0  0  0  0  0  0  0  0  0  0  0  0
    4.1852   -2.7798   -1.0317 H   0  0  0  0  0  0  0  0  0  0  0  0
    5.6349   -1.5314    0.0006 C   0  0  0  0  0  0  0  0  0  0  0  0
    6.4766   -2.2294   -0.1187 H   0  0  0  0  0  0  0  0  0  0  0  0
    5.8740   -0.3131    0.6883 C   0  0  0  0  0  0  0  0  0  0  0  0
    4.8214    0.5903    0.8609 C   0  0  0  0  0  0  0  0  0  0  0  0
    4.9649    1.5391    1.3957 H   0  0  0  0  0  0  0  0  0  0  0  0
    7.4365    1.0692    1.8313 C   0  0  0  0  0  0  0  0  0  0  0  0
    7.2593    1.9694    1.1992 H   0  0  0  0  0  0  0  0  0  0  0  0
    8.5075    1.0273    2.1033 H   0  0  0  0  0  0  0  0  0  0  0  0
    6.8315    1.1671    2.7618 H   0  0  0  0  0  0  0  0  0  0  0  0
    2.4510    1.2199    0.5790 C   0  0  0  0  0  3  0  0  0  0  0  0
    2.6111    2.0652    1.2735 H   0  0  0  0  0  0  0  0  0  0  0  0
   -0.8088    1.8224   -0.2081 C   0  0  0  0  0  0  0  0  0  0  0  0
   -1.9614    2.7177    0.0572 C   0  0  0  0  0  0  0  0  0  0  0  0
   -3.3175    2.3296   -0.0789 C   0  0  0  0  0  0  0  0  0  0  0  0
   -4.3550    3.2437    0.1748 C   0  0  0  0  0  0  0  0  0  0  0  0
   -5.3948    2.9060    0.0631 H   0  0  0  0  0  0  0  0  0  0  0  0
   -4.0598    4.5532    0.5723 C   0  0  0  0  0  0  0  0  0  0  0  0
   -4.8815    5.2601    0.7621 H   0  0  0  0  0  0  0  0  0  0  0  0
   -2.7229    4.9525    0.7338 C   0  0  0  0  0  0  0  0  0  0  0  0
   -2.4823    5.9773    1.0529 H   0  0  0  0  0  0  0  0  0  0  0  0
   -1.6948    4.0408    0.4818 C   0  0  0  0  0  0  0  0  0  0  0  0
   -0.6400    4.3249    0.6019 H   0  0  0  0  0  0  0  0  0  0  0  0
  1 24  1  0  0  0  0
  2  3  1  0  0  0  0
  2 20  1  0  0  0  0
  4  8  1  0  0  0  0
  5 22  1  0  0  0  0
  6 16  1  0  0  0  0
  7 20  1  0  0  0  0
  7 14  1  0  0  0  0
  8  7  2  0  0  0  0
  9  8  1  0  0  0  0
  9 11  2  0  0  0  0
 10  9  1  0  0  0  0
 11 13  1  0  0  0  0
 12 11  1  0  0  0  0
 13 14  2  0  0  0  0
 13  6  1  0  0  0  0
 14 15  1  0  0  0  0
 16 18  1  0  0  0  0
 16 19  1  0  0  0  0
 17 16  1  0  0  0  0
 20 21  1  0  0  0  0
 22 23  1  0  0  0  0
 22  3  2  0  0  0  0
 23 31  1  0  0  0  0
 24 23  2  0  0  0  0
 24 25  1  0  0  0  0
 25 27  2  0  0  0  0
 26 25  1  0  0  0  0
 27 29  1  0  0  0  0
 27 28  1  0  0  0  0
 29 30  1  0  0  0  0
 31 32  1  0  0  0  0
 31 29  2  0  0  0  0
M  CHG  2   4  -1   5  -1
M  END
