1,2,3
 OpenBabel05122313063D

 34 36  0  0  0  0  0  0  0  0999 V2000
   -1.1285    1.7610   -0.1279 O   0  5  0  0  0  0  0  0  0  0  0  0
    2.2385    0.6710    0.2919 O   0  5  0  0  0  0  0  0  0  0  0  0
    0.1250   -0.5212    0.0763 N   0  0  0  0  0  2  0  0  0  0  0  0
    1.2010   -1.3333   -0.0987 N   0  0  0  0  0  0  0  0  0  0  0  0
   -2.3008   -0.3299   -0.0554 C   0  0  0  0  0  0  0  0  0  0  0  0
   -2.2668    1.0929   -0.1341 C   0  0  0  0  0  0  0  0  0  0  0  0
   -3.4793    1.8338   -0.2809 C   0  0  0  0  0  0  0  0  0  0  0  0
   -4.6943    1.1835   -0.3171 C   0  0  0  0  0  0  0  0  0  0  0  0
   -6.0490   -0.8967   -0.2345 C   0  0  0  0  0  0  0  0  0  0  0  0
   -6.1397   -2.2775   -0.1233 C   0  0  0  0  0  0  0  0  0  0  0  0
   -4.9578   -3.0432    0.0215 C   0  0  0  0  0  0  0  0  0  0  0  0
   -3.7110   -2.4269    0.0478 C   0  0  0  0  0  0  0  0  0  0  0  0
   -3.5814   -1.0157   -0.0763 C   0  0  0  0  0  0  0  0  0  0  0  0
   -4.7872   -0.2405   -0.2123 C   0  0  0  0  0  0  0  0  0  0  0  0
   -1.0716   -1.0583   -0.0726 C   0  0  0  0  0  3  0  0  0  0  0  0
    2.3037   -0.6232    0.0568 C   0  0  0  0  0  0  0  0  0  0  0  0
    3.6287   -1.2611   -0.0466 C   0  0  0  0  0  0  0  0  0  0  0  0
    4.7946   -0.4961    0.1703 C   0  0  0  0  0  0  0  0  0  0  0  0
    6.0564   -1.0967    0.0731 C   0  0  0  0  0  0  0  0  0  0  0  0
    6.1653   -2.4611   -0.2419 C   0  0  0  0  0  0  0  0  0  0  0  0
    5.0057   -3.2270   -0.4579 C   0  0  0  0  0  0  0  0  0  0  0  0
    3.7424   -2.6341   -0.3607 C   0  0  0  0  0  0  0  0  0  0  0  0
   -3.4001    2.9274   -0.3556 H   0  0  0  0  0  0  0  0  0  0  0  0
   -5.6249    1.7630   -0.4220 H   0  0  0  0  0  0  0  0  0  0  0  0
   -6.9574   -0.2831   -0.3397 H   0  0  0  0  0  0  0  0  0  0  0  0
   -7.1209   -2.7745   -0.1410 H   0  0  0  0  0  0  0  0  0  0  0  0
   -5.0234   -4.1372    0.1211 H   0  0  0  0  0  0  0  0  0  0  0  0
   -2.8164   -3.0508    0.1829 H   0  0  0  0  0  0  0  0  0  0  0  0
   -1.0752   -2.1445   -0.2653 H   0  0  0  0  0  0  0  0  0  0  0  0
    4.6891    0.5689    0.4213 H   0  0  0  0  0  0  0  0  0  0  0  0
    6.9628   -0.4970    0.2458 H   0  0  0  0  0  0  0  0  0  0  0  0
    7.1576   -2.9313   -0.3184 H   0  0  0  0  0  0  0  0  0  0  0  0
    5.0902   -4.2965   -0.7035 H   0  0  0  0  0  0  0  0  0  0  0  0
    2.8235   -3.2144   -0.5248 H   0  0  0  0  0  0  0  0  0  0  0  0
  4 16  2  0  0  0  0
  4  3  1  0  0  0  0
  6  1  1  0  0  0  0
  6  5  2  0  0  0  0
  7  6  1  0  0  0  0
  8  7  2  0  0  0  0
  8 14  1  0  0  0  0
  9 14  2  0  0  0  0
  9 10  1  0  0  0  0
 10 11  2  0  0  0  0
 11 12  1  0  0  0  0
 11 27  1  0  0  0  0
 12 28  1  0  0  0  0
 13  5  1  0  0  0  0
 13 12  2  0  0  0  0
 14 13  1  0  0  0  0
 15  5  1  0  0  0  0
 15  3  1  0  0  0  0
 16  2  1  0  0  0  0
 17 16  1  0  0  0  0
 17 18  1  0  0  0  0
 18 30  1  0  0  0  0
 19 18  2  0  0  0  0
 19 31  1  0  0  0  0
 20 19  1  0  0  0  0
 21 22  1  0  0  0  0
 21 20  2  0  0  0  0
 22 17  2  0  0  0  0
 23  7  1  0  0  0  0
 24  8  1  0  0  0  0
 25  9  1  0  0  0  0
 26 10  1  0  0  0  0
 29 15  1  0  0  0  0
 32 20  1  0  0  0  0
 33 21  1  0  0  0  0
 34 22  1  0  0  0  0
M  CHG  2   1  -1   2  -1
M  END
