2,4,5
 OpenBabel05122313063D

 32 33  0  0  0  0  0  0  0  0999 V2000
    6.1715   -1.8409   -0.0998 Br  0  0  0  0  0  0  0  0  0  0  0  0
   -0.2027   -0.3474   -0.0670 N   0  0  0  0  0  2  0  0  0  0  0  0
   -1.3823   -1.0097   -0.0372 N   0  0  0  0  0  0  0  0  0  0  0  0
    1.3508    1.7982    0.3509 O   0  5  0  0  0  0  0  0  0  0  0  0
   -2.2020    1.1161   -0.3276 O   0  5  0  0  0  0  0  0  0  0  0  0
   -3.0122   -2.9812    0.1497 O   0  0  0  0  0  0  0  0  0  0  0  0
   -2.1420   -2.4508    0.1176 H   0  0  0  0  0  0  0  0  0  0  0  0
    2.2201   -0.4296    0.0422 C   0  0  0  0  0  0  0  0  0  0  0  0
    2.3913    0.9837    0.2086 C   0  0  0  0  0  0  0  0  0  0  0  0
    3.7011    1.5115    0.2768 C   0  0  0  0  0  0  0  0  0  0  0  0
    3.8145    2.5972    0.4062 H   0  0  0  0  0  0  0  0  0  0  0  0
    4.8193    0.6795    0.1831 C   0  0  0  0  0  0  0  0  0  0  0  0
    5.8321    1.1038    0.2318 H   0  0  0  0  0  0  0  0  0  0  0  0
    4.6455   -0.7106    0.0255 C   0  0  0  0  0  0  0  0  0  0  0  0
    3.3656   -1.2613   -0.0371 C   0  0  0  0  0  0  0  0  0  0  0  0
    3.2351   -2.3468   -0.1561 H   0  0  0  0  0  0  0  0  0  0  0  0
    0.9099   -1.0324    0.0127 C   0  0  0  0  0  3  0  0  0  0  0  0
    0.8332   -2.1353    0.0593 H   0  0  0  0  0  0  0  0  0  0  0  0
   -2.4076   -0.1642   -0.1917 C   0  0  0  0  0  0  0  0  0  0  0  0
   -3.7686   -0.6957   -0.1886 C   0  0  0  0  0  0  0  0  0  0  0  0
   -4.0032   -2.0976   -0.0127 C   0  0  0  0  0  0  0  0  0  0  0  0
   -5.3383   -2.5938   -0.0043 C   0  0  0  0  0  0  0  0  0  0  0  0
   -6.3911   -1.6867   -0.1718 C   0  0  0  0  0  0  0  0  0  0  0  0
   -7.4224   -2.0750   -0.1656 H   0  0  0  0  0  0  0  0  0  0  0  0
   -6.1693   -0.3038   -0.3480 C   0  0  0  0  0  0  0  0  0  0  0  0
   -7.0210    0.3791   -0.4796 H   0  0  0  0  0  0  0  0  0  0  0  0
   -4.8659    0.1841   -0.3559 C   0  0  0  0  0  0  0  0  0  0  0  0
   -4.6509    1.2533   -0.4948 H   0  0  0  0  0  0  0  0  0  0  0  0
   -5.5543   -4.0696    0.1829 C   0  0  0  0  0  0  0  0  0  0  0  0
   -5.0437   -4.6513   -0.6128 H   0  0  0  0  0  0  0  0  0  0  0  0
   -6.6310   -4.3247    0.1719 H   0  0  0  0  0  0  0  0  0  0  0  0
   -5.1164   -4.4185    1.1413 H   0  0  0  0  0  0  0  0  0  0  0  0
  1 14  1  0  0  0  0
  2  3  1  0  0  0  0
  2 17  1  0  0  0  0
  5 19  1  0  0  0  0
  7  6  1  0  0  0  0
  8  9  1  0  0  0  0
  9 10  2  0  0  0  0
  9  4  1  0  0  0  0
 10 11  1  0  0  0  0
 12 13  1  0  0  0  0
 12 10  1  0  0  0  0
 14 12  2  0  0  0  0
 15 14  1  0  0  0  0
 15  8  2  0  0  0  0
 16 15  1  0  0  0  0
 17  8  1  0  0  0  0
 17 18  1  0  0  0  0
 19 20  1  0  0  0  0
 19  3  2  0  0  0  0
 20 21  1  0  0  0  0
 21 22  2  0  0  0  0
 21  6  1  0  0  0  0
 22 29  1  0  0  0  0
 23 24  1  0  0  0  0
 23 22  1  0  0  0  0
 25 23  2  0  0  0  0
 26 25  1  0  0  0  0
 27 25  1  0  0  0  0
 27 20  2  0  0  0  0
 28 27  1  0  0  0  0
 29 32  1  0  0  0  0
 30 29  1  0  0  0  0
 31 29  1  0  0  0  0
M  CHG  2   4  -1   5  -1
M  END
