1,3,4
 OpenBabel05122313063D

 18 17  0  0  0  0  0  0  0  0999 V2000
   -1.4058   -0.2676    1.3901 N   0  0  0  0  0  0  0  0  0  0  0  0
   -1.8307   -1.1877    1.1724 H   0  0  0  0  0  0  0  0  0  0  0  0
    1.1840   -0.9528    1.4703 O   0  0  0  0  0  1  0  0  0  0  0  0
   -0.9233    0.3351   -1.4240 O   0  5  0  0  0  0  0  0  0  0  0  0
   -2.6359    1.2118   -2.5127 O   0  0  0  0  0  0  0  0  0  0  0  0
    0.3931   -1.3311    2.5505 C   0  0  0  0  0  0  0  0  0  0  0  0
    1.0213   -1.3632    3.4729 H   0  0  0  0  0  0  0  0  0  0  0  0
   -0.0562   -2.3518    2.4216 H   0  0  0  0  0  0  0  0  0  0  0  0
   -0.7305   -0.3058    2.7101 C   0  0  0  0  0  0  0  0  0  0  0  0
   -1.4617   -0.5489    3.5136 H   0  0  0  0  0  0  0  0  0  0  0  0
   -0.3032    0.7010    2.8853 H   0  0  0  0  0  0  0  0  0  0  0  0
   -2.3498    0.8298    1.1343 C   0  0  0  0  0  0  0  0  0  0  0  0
   -1.7657    1.7717    1.1706 H   0  0  0  0  0  0  0  0  0  0  0  0
   -3.1002    0.8571    1.9570 H   0  0  0  0  0  0  0  0  0  0  0  0
   -3.0400    0.6460   -0.2122 C   0  0  0  0  0  0  0  0  0  0  0  0
   -3.5258   -0.3555   -0.2524 H   0  0  0  0  0  0  0  0  0  0  0  0
   -3.8548    1.3866   -0.3223 H   0  0  0  0  0  0  0  0  0  0  0  0
   -2.1665    0.7669   -1.4709 C   0  0  0  0  0  0  0  0  0  0  0  0
  1  9  1  0  0  0  0
  2  1  1  0  0  0  0
  3  6  1  0  0  0  0
  5 18  2  0  0  0  0
  6  9  1  0  0  0  0
  6  7  1  0  0  0  0
  8  6  1  0  0  0  0
  9 11  1  0  0  0  0
  9 10  1  0  0  0  0
 12 13  1  0  0  0  0
 12  1  1  0  0  0  0
 12 14  1  0  0  0  0
 15 12  1  0  0  0  0
 16 15  1  0  0  0  0
 17 15  1  0  0  0  0
 18  4  1  0  0  0  0
 18 15  1  0  0  0  0
M  CHG  1   4  -1
M  END
