1,2,4
 OpenBabel05122313063D

 31 32  0  0  1  0  0  0  0  0999 V2000
   -1.9106    1.2610   -0.0506 O   0  0  0  0  0  1  0  0  0  0  0  0
    1.6318    0.3236   -0.0015 O   0  5  0  0  0  0  0  0  0  0  0  0
    1.8874    2.6140    0.0166 N   0  0  0  0  0  0  0  0  0  0  0  0
    0.5173    2.5595    0.0094 N   0  0  0  0  0  2  0  0  0  0  0  0
   -1.6256    3.6927   -0.0004 C   0  0  0  0  0  0  0  0  0  0  0  0
    3.8586    1.1927    0.0036 C   0  0  0  0  0  0  0  0  0  0  0  0
   -0.1763    3.6972    0.0261 C   0  0  0  0  0  0  0  0  0  0  0  0
    2.3948    1.3977    0.0083 C   0  0  0  0  0  0  0  0  0  0  0  0
   -2.3318    4.9339    0.0120 C   0  0  0  0  0  0  0  0  0  0  0  0
   -1.7581    5.8695    0.0502 H   0  0  0  0  0  0  0  0  0  0  0  0
    0.5691    5.0061    0.0658 C   0  0  0  0  0  0  0  0  0  0  0  0
    0.2948    5.5851    0.9708 H   0  0  0  0  0  0  0  0  0  0  0  0
    0.3124    5.6298   -0.8142 H   0  0  0  0  0  0  0  0  0  0  0  0
    1.6540    4.8129    0.0713 H   0  0  0  0  0  0  0  0  0  0  0  0
    4.7497    2.2836    0.1089 C   0  0  0  0  0  0  0  0  0  0  0  0
    4.3336    3.2969    0.1987 H   0  0  0  0  0  0  0  0  0  0  0  0
   -2.4048    2.4777   -0.0455 C   0  0  1  0  0  3  0  0  0  0  0  0
   -3.7190    5.0047   -0.0243 C   0  0  0  0  0  0  0  0  0  0  0  0
   -4.2220    5.9825   -0.0136 H   0  0  0  0  0  0  0  0  0  0  0  0
   -3.8286    2.5791   -0.0905 C   0  0  0  0  0  0  0  0  0  0  0  0
   -4.3885    1.6338   -0.1403 H   0  0  0  0  0  0  0  0  0  0  0  0
    4.3774   -0.1154   -0.1152 C   0  0  0  0  0  0  0  0  0  0  0  0
    3.6728   -0.9545   -0.2064 H   0  0  0  0  0  0  0  0  0  0  0  0
   -4.4725    3.8092   -0.0793 C   0  0  0  0  0  0  0  0  0  0  0  0
   -5.5724    3.8494   -0.1152 H   0  0  0  0  0  0  0  0  0  0  0  0
    6.1323    2.0660    0.1002 C   0  0  0  0  0  0  0  0  0  0  0  0
    6.8202    2.9212    0.1848 H   0  0  0  0  0  0  0  0  0  0  0  0
    6.6440    0.7614   -0.0156 C   0  0  0  0  0  0  0  0  0  0  0  0
    7.7320    0.5939   -0.0222 H   0  0  0  0  0  0  0  0  0  0  0  0
    5.7624   -0.3266   -0.1241 C   0  0  0  0  0  0  0  0  0  0  0  0
    6.1584   -1.3494   -0.2188 H   0  0  0  0  0  0  0  0  0  0  0  0
  2  8  1  0  0  0  0
  4  3  1  0  0  0  0
  4  7  1  0  0  0  0
  5  9  1  0  0  0  0
  5  7  2  0  0  0  0
  6  8  1  0  0  0  0
  6 15  1  0  0  0  0
  7 11  1  0  0  0  0
  8  3  2  0  0  0  0
  9 10  1  0  0  0  0
 11 14  1  0  0  0  0
 11 12  1  0  0  0  0
 13 11  1  0  0  0  0
 15 16  1  0  0  0  0
 17  1  1  6  0  0  0
 17  5  1  0  0  0  0
 18 19  1  0  0  0  0
 18  9  2  0  0  0  0
 20 24  2  0  0  0  0
 20 17  1  0  0  0  0
 21 20  1  0  0  0  0
 22  6  2  0  0  0  0
 23 22  1  0  0  0  0
 24 18  1  0  0  0  0
 25 24  1  0  0  0  0
 26 15  2  0  0  0  0
 26 27  1  0  0  0  0
 28 26  1  0  0  0  0
 29 28  1  0  0  0  0
 30 22  1  0  0  0  0
 30 28  2  0  0  0  0
 31 30  1  0  0  0  0
M  CHG  1   2  -1
M  END
