1,3,4
 OpenBabel05122313063D

 28 29  0  0  0  0  0  0  0  0999 V2000
   -0.4013    1.1122    0.0020 N   0  0  0  0  0  2  0  0  0  0  0  0
    0.9379    1.3436    0.1030 N   0  0  0  0  0  0  0  0  0  0  0  0
   -2.7334   -0.3384   -0.0097 O   0  5  0  0  0  0  0  0  0  0  0  0
    1.0064   -0.9350   -0.3016 O   0  5  0  0  0  0  0  0  0  0  0  0
   -5.7045   -0.7815   -0.0222 Br  0  0  0  0  0  0  0  0  0  0  0  0
    7.7783    0.2009    0.0694 Br  0  0  0  0  0  0  0  0  0  0  0  0
   -2.6435    2.0814    0.0340 C   0  0  0  0  0  0  0  0  0  0  0  0
   -3.3496    0.8337   -0.0089 C   0  0  0  0  0  0  0  0  0  0  0  0
   -4.7702    0.8664   -0.0043 C   0  0  0  0  0  0  0  0  0  0  0  0
   -5.4702    2.0778    0.0223 C   0  0  0  0  0  0  0  0  0  0  0  0
   -6.5693    2.0596    0.0199 H   0  0  0  0  0  0  0  0  0  0  0  0
   -4.7703    3.2988    0.0544 C   0  0  0  0  0  0  0  0  0  0  0  0
   -5.3269    4.2465    0.0726 H   0  0  0  0  0  0  0  0  0  0  0  0
   -3.3768    3.2962    0.0673 C   0  0  0  0  0  0  0  0  0  0  0  0
   -2.8189    4.2446    0.0999 H   0  0  0  0  0  0  0  0  0  0  0  0
   -1.2029    2.1476    0.0847 C   0  0  0  0  0  3  0  0  0  0  0  0
   -0.7281    3.1410    0.1975 H   0  0  0  0  0  0  0  0  0  0  0  0
    1.6083    0.2199   -0.0876 C   0  0  0  0  0  0  0  0  0  0  0  0
    3.0799    0.2232   -0.0506 C   0  0  0  0  0  0  0  0  0  0  0  0
    3.7903   -0.9818   -0.2395 C   0  0  0  0  0  0  0  0  0  0  0  0
    3.2273   -1.9095   -0.4139 H   0  0  0  0  0  0  0  0  0  0  0  0
    5.1888   -0.9941   -0.2053 C   0  0  0  0  0  0  0  0  0  0  0  0
    5.7450   -1.9303   -0.3527 H   0  0  0  0  0  0  0  0  0  0  0  0
    5.8798    0.2085    0.0203 C   0  0  0  0  0  0  0  0  0  0  0  0
    5.1892    1.4200    0.2098 C   0  0  0  0  0  0  0  0  0  0  0  0
    5.7478    2.3504    0.3827 H   0  0  0  0  0  0  0  0  0  0  0  0
    3.7927    1.4226    0.1725 C   0  0  0  0  0  0  0  0  0  0  0  0
    3.2286    2.3550    0.3148 H   0  0  0  0  0  0  0  0  0  0  0  0
  1 16  1  0  0  0  0
  1  2  1  0  0  0  0
  3  8  1  0  0  0  0
  4 18  1  0  0  0  0
  5  9  1  0  0  0  0
  7 14  1  0  0  0  0
  7 16  1  0  0  0  0
  8  9  1  0  0  0  0
  8  7  2  0  0  0  0
  9 10  2  0  0  0  0
 10 12  1  0  0  0  0
 11 10  1  0  0  0  0
 12 14  2  0  0  0  0
 12 13  1  0  0  0  0
 14 15  1  0  0  0  0
 16 17  1  0  0  0  0
 18 19  1  0  0  0  0
 18  2  2  0  0  0  0
 19 27  1  0  0  0  0
 20 22  1  0  0  0  0
 20 19  2  0  0  0  0
 21 20  1  0  0  0  0
 22 24  2  0  0  0  0
 23 22  1  0  0  0  0
 24  6  1  0  0  0  0
 24 25  1  0  0  0  0
 25 26  1  0  0  0  0
 27 25  2  0  0  0  0
 27 28  1  0  0  0  0
M  CHG  2   3  -1   4  -1
M  END
