5,6,8
 OpenBabel05122313063D

 33 34  0  0  1  0  0  0  0  0999 V2000
    5.1641    1.1726   -0.1153 S   0  0  0  0  0  0  0  0  0  0  0  0
   -0.7838    3.0846    1.2621 F   0  0  0  0  0  0  0  0  0  0  0  0
    1.0725    3.8056    0.3836 F   0  0  0  0  0  0  0  0  0  0  0  0
   -0.6002    3.2731   -0.9069 F   0  0  0  0  0  0  0  0  0  0  0  0
   -1.6772   -1.5341   -0.1402 O   0  5  0  0  0  0  0  0  0  0  0  0
    1.8505   -1.0266   -0.3638 O   0  5  0  0  0  0  0  0  0  0  0  0
   -3.8088    2.1054   -0.1584 O   0  0  0  0  0  0  0  0  0  0  0  0
   -0.2883    0.4839    0.0514 N   0  0  0  0  0  2  0  0  0  0  0  0
   -1.6064    0.7494   -0.0711 N   0  0  0  0  0  0  0  0  0  0  0  0
   -2.3078   -0.3833   -0.1316 C   0  0  0  0  0  0  0  0  0  0  0  0
   -3.7608   -0.3295   -0.2114 C   0  0  0  0  0  0  0  0  0  0  0  0
   -4.4443    0.9337   -0.2172 C   0  0  0  0  0  0  0  0  0  0  0  0
   -5.8576    0.9348   -0.2912 C   0  0  0  0  0  0  0  0  0  0  0  0
   -6.5684   -0.2635   -0.3568 C   0  0  0  0  0  0  0  0  0  0  0  0
   -5.8992   -1.5073   -0.3524 C   0  0  0  0  0  0  0  0  0  0  0  0
   -4.5084   -1.5307   -0.2809 C   0  0  0  0  0  0  0  0  0  0  0  0
    0.5831    1.4879    0.1363 C   0  0  1  0  0  3  0  0  0  0  0  0
    1.9844    1.2872    0.1305 C   0  0  0  0  0  0  0  0  0  0  0  0
    2.5747    0.0532   -0.1455 C   0  0  0  0  0  0  0  0  0  0  0  0
    4.0136   -0.1384   -0.2572 C   0  0  0  0  0  0  0  0  0  0  0  0
    6.4937    0.0987   -0.3612 C   0  0  0  0  0  0  0  0  0  0  0  0
    6.0799   -1.2109   -0.5484 C   0  0  0  0  0  0  0  0  0  0  0  0
    4.6676   -1.3483   -0.4898 C   0  0  0  0  0  0  0  0  0  0  0  0
    0.0577    2.9256    0.2203 C   0  0  0  0  0  0  0  0  0  0  0  0
   -2.8167    1.9077   -0.1160 H   0  0  0  0  0  0  0  0  0  0  0  0
   -6.3669    1.9091   -0.2944 H   0  0  0  0  0  0  0  0  0  0  0  0
   -7.6676   -0.2339   -0.4130 H   0  0  0  0  0  0  0  0  0  0  0  0
   -6.4694   -2.4459   -0.4047 H   0  0  0  0  0  0  0  0  0  0  0  0
   -3.9524   -2.4792   -0.2745 H   0  0  0  0  0  0  0  0  0  0  0  0
    2.6261    2.1649    0.2690 H   0  0  0  0  0  0  0  0  0  0  0  0
    7.5169    0.4943   -0.3533 H   0  0  0  0  0  0  0  0  0  0  0  0
    6.7768   -2.0423   -0.7198 H   0  0  0  0  0  0  0  0  0  0  0  0
    4.1135   -2.2886   -0.6059 H   0  0  0  0  0  0  0  0  0  0  0  0
  4 24  1  0  0  0  0
  5 10  1  0  0  0  0
  6 19  1  0  0  0  0
  7 25  1  0  0  0  0
  9  8  1  0  0  0  0
 10  9  2  0  0  0  0
 11 10  1  0  0  0  0
 12 11  1  0  0  0  0
 12  7  1  0  0  0  0
 13 12  2  0  0  0  0
 14 15  2  0  0  0  0
 14 13  1  0  0  0  0
 15 16  1  0  0  0  0
 16 29  1  0  0  0  0
 16 11  2  0  0  0  0
 17  8  1  6  0  0  0
 17 24  1  0  0  0  0
 18 17  1  0  0  0  0
 18 30  1  0  0  0  0
 19 18  2  0  0  0  0
 20 19  1  0  0  0  0
 20  1  1  0  0  0  0
 21 31  1  0  0  0  0
 21  1  1  0  0  0  0
 22 23  1  0  0  0  0
 22 21  2  0  0  0  0
 23 20  2  0  0  0  0
 24  3  1  0  0  0  0
 24  2  1  0  0  0  0
 26 13  1  0  0  0  0
 27 14  1  0  0  0  0
 28 15  1  0  0  0  0
 32 22  1  0  0  0  0
 33 23  1  0  0  0  0
M  CHG  2   5  -1   6  -1
M  END
