1,3,8
 OpenBabel05122313063D

 40 42  0  0  1  0  0  0  0  0999 V2000
   -0.8294   -1.0423    0.4651 N   0  0  0  0  0  2  0  0  0  0  0  0
   -3.2557   -2.6926    0.3281 C   0  0  0  0  0  0  0  0  0  0  0  0
    1.0328   -2.6480    0.1041 O   0  0  0  0  0  1  0  0  0  0  0  0
   -4.2520   -2.6828    1.3264 C   0  0  0  0  0  0  0  0  0  0  0  0
   -4.0626   -3.1937    2.2849 H   0  0  0  0  0  0  0  0  0  0  0  0
   -5.4767   -2.0305    1.1148 C   0  0  0  0  0  0  0  0  0  0  0  0
   -6.2447   -2.0369    1.9036 H   0  0  0  0  0  0  0  0  0  0  0  0
    0.1548    0.5528   -1.4009 O   0  5  0  0  0  0  0  0  0  0  0  0
   -5.7226   -1.3737   -0.1023 C   0  0  0  0  0  0  0  0  0  0  0  0
   -6.6787   -0.8544   -0.2675 H   0  0  0  0  0  0  0  0  0  0  0  0
   -4.7415   -1.3823   -1.1062 C   0  0  0  0  0  0  0  0  0  0  0  0
   -4.9249   -0.8674   -2.0613 H   0  0  0  0  0  0  0  0  0  0  0  0
   -3.5184   -2.0368   -0.8939 C   0  0  0  0  0  0  0  0  0  0  0  0
   -2.7393   -2.0278   -1.6726 H   0  0  0  0  0  0  0  0  0  0  0  0
   -1.8930   -3.2763    0.5992 C   0  0  0  0  0  0  0  0  0  0  0  0
   -1.4090   -3.6013   -0.3431 H   0  0  0  0  0  0  0  0  0  0  0  0
   -1.9673   -4.1566    1.2706 H   0  0  0  0  0  0  0  0  0  0  0  0
   -0.9474   -2.2493    1.2862 C   0  0  1  0  0  0  0  0  0  0  0  0
   -1.3608   -1.9955    2.2890 H   0  0  0  0  0  0  0  0  0  0  0  0
    0.4929   -2.7726    1.3818 C   0  0  0  0  0  0  0  0  0  0  0  0
    1.0631   -2.1723    2.1336 H   0  0  0  0  0  0  0  0  0  0  0  0
    0.5130   -3.8373    1.7100 H   0  0  0  0  0  0  0  0  0  0  0  0
   -1.7076   -0.0821    0.6247 C   0  0  0  0  0  3  0  0  0  0  0  0
   -2.4453   -0.2180    1.4366 H   0  0  0  0  0  0  0  0  0  0  0  0
   -1.7821    1.1338   -0.1220 C   0  0  0  0  0  0  0  0  0  0  0  0
   -2.8446    2.0939    0.1185 C   0  0  0  0  0  0  0  0  0  0  0  0
   -3.9494    1.8444    0.9805 C   0  0  0  0  0  0  0  0  0  0  0  0
   -4.0535    0.8710    1.4799 H   0  0  0  0  0  0  0  0  0  0  0  0
   -4.9404    2.8011    1.1797 C   0  0  0  0  0  0  0  0  0  0  0  0
   -5.7846    2.5718    1.8478 H   0  0  0  0  0  0  0  0  0  0  0  0
   -4.8818    4.0538    0.5242 C   0  0  0  0  0  0  0  0  0  0  0  0
   -5.6703    4.8029    0.6899 H   0  0  0  0  0  0  0  0  0  0  0  0
   -3.8280    4.3197   -0.3410 C   0  0  0  0  0  0  0  0  0  0  0  0
   -3.7716    5.2813   -0.8749 H   0  0  0  0  0  0  0  0  0  0  0  0
   -2.8053    3.3589   -0.5671 C   0  0  0  0  0  0  0  0  0  0  0  0
   -1.7368    3.6187   -1.4864 C   0  0  0  0  0  0  0  0  0  0  0  0
   -1.7179    4.5930   -2.0005 H   0  0  0  0  0  0  0  0  0  0  0  0
   -0.7616    2.6856   -1.7531 C   0  0  0  0  0  0  0  0  0  0  0  0
    0.0466    2.8734   -2.4739 H   0  0  0  0  0  0  0  0  0  0  0  0
   -0.7723    1.4093   -1.0930 C   0  0  0  0  0  0  0  0  0  0  0  0
  1 23  1  0  0  0  0
  1 18  1  0  0  0  0
  2 15  1  0  0  0  0
  2  4  1  0  0  0  0
  3 20  1  0  0  0  0
  4  5  1  0  0  0  0
  6  4  2  0  0  0  0
  6  7  1  0  0  0  0
  8 40  1  0  0  0  0
  9  6  1  0  0  0  0
 10  9  1  0  0  0  0
 11 13  1  0  0  0  0
 11  9  2  0  0  0  0
 12 11  1  0  0  0  0
 13  2  2  0  0  0  0
 14 13  1  0  0  0  0
 15 17  1  0  0  0  0
 15 18  1  0  0  0  0
 16 15  1  0  0  0  0
 18 20  1  0  0  0  0
 18 19  1  1  0  0  0
 20 22  1  0  0  0  0
 20 21  1  0  0  0  0
 23 24  1  0  0  0  0
 25 26  1  0  0  0  0
 25 23  1  0  0  0  0
 26 27  1  0  0  0  0
 27 29  2  0  0  0  0
 27 28  1  0  0  0  0
 29 30  1  0  0  0  0
 31 32  1  0  0  0  0
 31 29  1  0  0  0  0
 33 31  2  0  0  0  0
 34 33  1  0  0  0  0
 35 33  1  0  0  0  0
 35 26  2  0  0  0  0
 36 35  1  0  0  0  0
 37 36  1  0  0  0  0
 38 36  2  0  0  0  0
 38 40  1  0  0  0  0
 39 38  1  0  0  0  0
 40 25  2  0  0  0  0
M  CHG  1   8  -1
M  END
