1,2,3
 OpenBabel05122313063D

 80 82  0  0  0  0  0  0  0  0999 V2000
    1.1885    0.5951    0.1248 P   0  0  0  0  0  0  0  0  0  0  0  0
   -0.3965   -2.1095    0.4689 Si  0  0  0  0  0  3  0  0  0  0  0  0
   -1.9658    1.1172    0.3722 Si  0  0  0  0  0  3  0  0  0  0  0  0
   -0.9626    2.1260    1.6879 C   0  0  0  0  0  0  0  0  0  0  0  0
    0.0893    2.9910    1.0599 C   0  0  0  0  0  0  0  0  0  0  0  0
    0.0306    4.3966    1.1667 C   0  0  0  0  0  0  0  0  0  0  0  0
    0.9705    5.2227    0.5352 C   0  0  0  0  0  0  0  0  0  0  0  0
    2.0085    4.6561   -0.2197 C   0  0  0  0  0  0  0  0  0  0  0  0
    2.0970    3.2610   -0.3347 C   0  0  0  0  0  0  0  0  0  0  0  0
    1.1495    2.4294    0.2923 C   0  0  0  0  0  0  0  0  0  0  0  0
    2.6051    0.2317   -1.0063 C   0  0  0  0  0  0  0  0  0  0  0  0
    2.4405    0.5968   -2.3631 C   0  0  0  0  0  0  0  0  0  0  0  0
    3.4038    0.2407   -3.3162 C   0  0  0  0  0  0  0  0  0  0  0  0
    4.5342   -0.4996   -2.9314 C   0  0  0  0  0  0  0  0  0  0  0  0
    4.6998   -0.8712   -1.5889 C   0  0  0  0  0  0  0  0  0  0  0  0
    3.7438   -0.5052   -0.6276 C   0  0  0  0  0  0  0  0  0  0  0  0
    1.8075    0.0981    1.7988 C   0  0  0  0  0  0  0  0  0  0  0  0
    1.2095   -0.9076    2.6071 C   0  0  0  0  0  0  0  0  0  0  0  0
    1.8770   -1.2588    3.8051 C   0  0  0  0  0  0  0  0  0  0  0  0
    3.0551   -0.6277    4.2178 C   0  0  0  0  0  0  0  0  0  0  0  0
    3.6051    0.4026    3.4388 C   0  0  0  0  0  0  0  0  0  0  0  0
    2.9783    0.7566    2.2396 C   0  0  0  0  0  0  0  0  0  0  0  0
   -0.0988   -1.5805    2.2896 C   0  0  0  0  0  0  0  0  0  0  0  0
   -1.9983   -3.1912    0.4110 C   0  0  0  0  0  0  0  0  0  0  0  0
   -2.0524   -4.1072   -0.8207 C   0  0  0  0  0  0  0  0  0  0  0  0
   -2.2451   -3.9743    1.7119 C   0  0  0  0  0  0  0  0  0  0  0  0
    1.1973   -3.0582   -0.0634 C   0  0  0  0  0  0  0  0  0  0  0  0
    1.3530   -4.3934    0.6814 C   0  0  0  0  0  0  0  0  0  0  0  0
    1.3667   -3.2049   -1.5820 C   0  0  0  0  0  0  0  0  0  0  0  0
   -2.7018    2.3491   -0.9192 C   0  0  0  0  0  0  0  0  0  0  0  0
   -1.6690    2.8826   -1.9257 C   0  0  0  0  0  0  0  0  0  0  0  0
   -3.4815    3.4913   -0.2505 C   0  0  0  0  0  0  0  0  0  0  0  0
   -3.3775    0.1763    1.2920 C   0  0  0  0  0  0  0  0  0  0  0  0
   -3.9131    0.9092    2.5327 C   0  0  0  0  0  0  0  0  0  0  0  0
   -4.5030   -0.2180    0.3242 C   0  0  0  0  0  0  0  0  0  0  0  0
   -1.6687    2.7452    2.2775 H   0  0  0  0  0  0  0  0  0  0  0  0
   -0.5113    1.3944    2.3932 H   0  0  0  0  0  0  0  0  0  0  0  0
   -0.7799    4.8464    1.7617 H   0  0  0  0  0  0  0  0  0  0  0  0
    0.8918    6.3159    0.6356 H   0  0  0  0  0  0  0  0  0  0  0  0
    2.7526    5.2965   -0.7164 H   0  0  0  0  0  0  0  0  0  0  0  0
    2.9107    2.8131   -0.9239 H   0  0  0  0  0  0  0  0  0  0  0  0
    1.5437    1.1576   -2.6719 H   0  0  0  0  0  0  0  0  0  0  0  0
    3.2642    0.5337   -4.3676 H   0  0  0  0  0  0  0  0  0  0  0  0
    5.2847   -0.7907   -3.6818 H   0  0  0  0  0  0  0  0  0  0  0  0
    5.5808   -1.4554   -1.2824 H   0  0  0  0  0  0  0  0  0  0  0  0
    3.8831   -0.8036    0.4212 H   0  0  0  0  0  0  0  0  0  0  0  0
    1.4333   -2.0461    4.4348 H   0  0  0  0  0  0  0  0  0  0  0  0
    3.5375   -0.9306    5.1598 H   0  0  0  0  0  0  0  0  0  0  0  0
    4.5171    0.9266    3.7615 H   0  0  0  0  0  0  0  0  0  0  0  0
    3.4065    1.5611    1.6220 H   0  0  0  0  0  0  0  0  0  0  0  0
   -0.9405   -0.9022    2.5559 H   0  0  0  0  0  0  0  0  0  0  0  0
   -0.2186   -2.4642    2.9491 H   0  0  0  0  0  0  0  0  0  0  0  0
   -2.8184   -2.4503    0.3007 H   0  0  0  0  0  0  0  0  0  0  0  0
   -3.0290   -4.6365   -0.8677 H   0  0  0  0  0  0  0  0  0  0  0  0
   -1.9418   -3.5311   -1.7603 H   0  0  0  0  0  0  0  0  0  0  0  0
   -1.2636   -4.8871   -0.7930 H   0  0  0  0  0  0  0  0  0  0  0  0
   -3.1755   -4.5777    1.6304 H   0  0  0  0  0  0  0  0  0  0  0  0
   -1.4204   -4.6825    1.9380 H   0  0  0  0  0  0  0  0  0  0  0  0
   -2.3649   -3.3094    2.5914 H   0  0  0  0  0  0  0  0  0  0  0  0
    2.0091   -2.3861    0.2954 H   0  0  0  0  0  0  0  0  0  0  0  0
    2.3355   -4.8621    0.4521 H   0  0  0  0  0  0  0  0  0  0  0  0
    0.5708   -5.1239    0.3897 H   0  0  0  0  0  0  0  0  0  0  0  0
    1.2993   -4.2686    1.7829 H   0  0  0  0  0  0  0  0  0  0  0  0
    2.3411   -3.6799   -1.8307 H   0  0  0  0  0  0  0  0  0  0  0  0
    1.3433   -2.2194   -2.0925 H   0  0  0  0  0  0  0  0  0  0  0  0
    0.5668   -3.8251   -2.0332 H   0  0  0  0  0  0  0  0  0  0  0  0
   -3.4169    1.7115   -1.4854 H   0  0  0  0  0  0  0  0  0  0  0  0
   -2.1625    3.5038   -2.7051 H   0  0  0  0  0  0  0  0  0  0  0  0
   -0.8965    3.5113   -1.4398 H   0  0  0  0  0  0  0  0  0  0  0  0
   -1.1482    2.0543   -2.4526 H   0  0  0  0  0  0  0  0  0  0  0  0
   -3.9624    4.1423   -1.0136 H   0  0  0  0  0  0  0  0  0  0  0  0
   -2.8146    4.1423    0.3526 H   0  0  0  0  0  0  0  0  0  0  0  0
   -4.2850    3.1221    0.4185 H   0  0  0  0  0  0  0  0  0  0  0  0
   -2.8955   -0.7614    1.6467 H   0  0  0  0  0  0  0  0  0  0  0  0
   -4.7136    0.3140    3.0239 H   0  0  0  0  0  0  0  0  0  0  0  0
   -4.3560    1.8944    2.2766 H   0  0  0  0  0  0  0  0  0  0  0  0
   -3.1242    1.0875    3.2914 H   0  0  0  0  0  0  0  0  0  0  0  0
   -5.2237   -0.9096    0.8117 H   0  0  0  0  0  0  0  0  0  0  0  0
   -5.0790    0.6714   -0.0070 H   0  0  0  0  0  0  0  0  0  0  0  0
   -4.1129   -0.7150   -0.5881 H   0  0  0  0  0  0  0  0  0  0  0  0
  1 10  1  0  0  0  0
  1 17  1  0  0  0  0
  2 23  1  0  0  0  0
  3 33  1  0  0  0  0
  3  4  1  0  0  0  0
  4 36  1  0  0  0  0
  4 37  1  0  0  0  0
  5  6  1  0  0  0  0
  5  4  1  0  0  0  0
  6 38  1  0  0  0  0
  7 39  1  0  0  0  0
  7  6  2  0  0  0  0
  8  7  1  0  0  0  0
  9  8  2  0  0  0  0
  9 10  1  0  0  0  0
 10  5  2  0  0  0  0
 11 16  1  0  0  0  0
 11  1  1  0  0  0  0
 12 11  2  0  0  0  0
 13 14  2  0  0  0  0
 13 12  1  0  0  0  0
 14 15  1  0  0  0  0
 15 45  1  0  0  0  0
 15 16  2  0  0  0  0
 16 46  1  0  0  0  0
 17 22  2  0  0  0  0
 17 18  1  0  0  0  0
 18 19  2  0  0  0  0
 19 20  1  0  0  0  0
 19 47  1  0  0  0  0
 20 48  1  0  0  0  0
 21 49  1  0  0  0  0
 21 20  2  0  0  0  0
 22 21  1  0  0  0  0
 23 51  1  0  0  0  0
 23 18  1  0  0  0  0
 23 52  1  0  0  0  0
 24  2  1  0  0  0  0
 24 26  1  0  0  0  0
 25 56  1  0  0  0  0
 25 24  1  0  0  0  0
 26 58  1  0  0  0  0
 26 59  1  0  0  0  0
 27 60  1  0  0  0  0
 27  2  1  0  0  0  0
 27 28  1  0  0  0  0
 28 63  1  0  0  0  0
 29 27  1  0  0  0  0
 30 32  1  0  0  0  0
 30  3  1  0  0  0  0
 31 69  1  0  0  0  0
 31 30  1  0  0  0  0
 32 72  1  0  0  0  0
 32 73  1  0  0  0  0
 33 74  1  0  0  0  0
 33 34  1  0  0  0  0
 34 75  1  0  0  0  0
 34 77  1  0  0  0  0
 35 78  1  0  0  0  0
 35 33  1  0  0  0  0
 40  8  1  0  0  0  0
 41  9  1  0  0  0  0
 42 12  1  0  0  0  0
 43 13  1  0  0  0  0
 44 14  1  0  0  0  0
 50 22  1  0  0  0  0
 53 24  1  0  0  0  0
 54 25  1  0  0  0  0
 55 25  1  0  0  0  0
 57 26  1  0  0  0  0
 61 28  1  0  0  0  0
 62 28  1  0  0  0  0
 64 29  1  0  0  0  0
 65 29  1  0  0  0  0
 66 29  1  0  0  0  0
 67 30  1  0  0  0  0
 68 31  1  0  0  0  0
 70 31  1  0  0  0  0
 71 32  1  0  0  0  0
 76 34  1  0  0  0  0
 79 35  1  0  0  0  0
 80 35  1  0  0  0  0
M  END
