3,4,30
 OpenBabel05122313063D

 38 40  0  0  0  0  0  0  0  0999 V2000
   -8.6892   -0.7755    0.1415 O   0  0  0  0  0  0  0  0  0  0  0  0
   -8.6911    1.4657   -0.2204 O   0  0  0  0  0  0  0  0  0  0  0  0
   -3.8677    0.2107   -0.0332 N   0  0  0  0  0  2  0  0  0  0  0  0
   -2.2400   -1.8863    0.2988 C   0  0  0  0  0  3  0  0  0  0  0  0
   -1.3675   -2.9693    0.4684 C   0  0  0  0  0  0  0  0  0  0  0  0
   -0.2809   -2.7939    0.4359 H   0  0  0  0  0  0  0  0  0  0  0  0
   -1.8678   -4.2677    0.6775 C   0  0  0  0  0  0  0  0  0  0  0  0
   -1.1694   -5.1093    0.8093 H   0  0  0  0  0  0  0  0  0  0  0  0
   -3.2537   -4.4995    0.7195 C   0  0  0  0  0  0  0  0  0  0  0  0
   -3.6399   -5.5167    0.8834 H   0  0  0  0  0  0  0  0  0  0  0  0
   -4.1460   -3.4333    0.5523 C   0  0  0  0  0  0  0  0  0  0  0  0
   -5.2305   -3.6204    0.5857 H   0  0  0  0  0  0  0  0  0  0  0  0
   -3.6525   -2.1278    0.3420 C   0  0  0  0  0  0  0  0  0  0  0  0
   -4.5347   -0.9612    0.1576 C   0  0  0  0  0  0  0  0  0  0  0  0
   -5.9406   -0.9279    0.1567 C   0  0  0  0  0  0  0  0  0  0  0  0
   -6.5284   -1.8413    0.3057 H   0  0  0  0  0  0  0  0  0  0  0  0
   -6.5919    0.3044   -0.0398 C   0  0  0  0  0  0  0  0  0  0  0  0
   -5.8551    1.4872   -0.2325 C   0  0  0  0  0  0  0  0  0  0  0  0
   -6.3959    2.4308   -0.3827 H   0  0  0  0  0  0  0  0  0  0  0  0
   -4.4514    1.4266   -0.2270 C   0  0  0  0  0  0  0  0  0  0  0  0
   -3.4905    2.5291   -0.4064 C   0  0  0  0  0  0  0  0  0  0  0  0
   -3.8931    3.8651   -0.6188 C   0  0  0  0  0  3  0  0  0  0  0  0
   -4.9623    4.1249   -0.6575 H   0  0  0  0  0  0  0  0  0  0  0  0
   -2.9288    4.8675   -0.7811 C   0  0  0  0  0  0  0  0  0  0  0  0
   -3.2438    5.9087   -0.9465 H   0  0  0  0  0  0  0  0  0  0  0  0
   -1.5623    4.5413   -0.7320 C   0  0  0  0  0  0  0  0  0  0  0  0
   -0.8073    5.3331   -0.8599 H   0  0  0  0  0  0  0  0  0  0  0  0
   -1.1526    3.2117   -0.5207 C   0  0  0  0  0  0  0  0  0  0  0  0
   -0.0807    2.9627   -0.4826 H   0  0  0  0  0  0  0  0  0  0  0  0
   -2.0981    2.1913   -0.3560 C   0  0  0  0  0  3  0  0  0  0  0  0
   -8.0896    0.4189   -0.0534 C   0  0  0  0  0  0  0  0  0  0  0  0
  -10.1352   -0.7628    0.1444 C   0  0  0  0  0  0  0  0  0  0  0  0
  -10.4808   -0.0640    0.9353 H   0  0  0  0  0  0  0  0  0  0  0  0
  -10.4869   -0.3475   -0.8236 H   0  0  0  0  0  0  0  0  0  0  0  0
  -10.6141   -2.1802    0.3744 C   0  0  0  0  0  0  0  0  0  0  0  0
  -11.7215   -2.2067    0.3825 H   0  0  0  0  0  0  0  0  0  0  0  0
  -10.2525   -2.5710    1.3461 H   0  0  0  0  0  0  0  0  0  0  0  0
  -10.2586   -2.8568   -0.4278 H   0  0  0  0  0  0  0  0  0  0  0  0
  1 32  1  0  0  0  0
  2 31  2  0  0  0  0
  3 14  1  0  0  0  0
  4 13  2  0  0  0  0
  4  5  1  0  0  0  0
  5  7  2  0  0  0  0
  6  5  1  0  0  0  0
  7  9  1  0  0  0  0
  7  8  1  0  0  0  0
  9 10  1  0  0  0  0
 11 12  1  0  0  0  0
 11  9  2  0  0  0  0
 13 11  1  0  0  0  0
 14 13  1  0  0  0  0
 15 14  2  0  0  0  0
 15 16  1  0  0  0  0
 17 15  1  0  0  0  0
 18 20  1  0  0  0  0
 18 17  2  0  0  0  0
 19 18  1  0  0  0  0
 20  3  1  0  0  0  0
 21 30  1  0  0  0  0
 21 20  2  0  0  0  0
 22 21  1  0  0  0  0
 23 22  1  0  0  0  0
 24 26  2  0  0  0  0
 24 22  1  0  0  0  0
 25 24  1  0  0  0  0
 26 28  1  0  0  0  0
 27 26  1  0  0  0  0
 28 29  1  0  0  0  0
 28 30  2  0  0  0  0
 31 17  1  0  0  0  0
 31  1  1  0  0  0  0
 32 35  1  0  0  0  0
 32 33  1  0  0  0  0
 34 32  1  0  0  0  0
 35 36  1  0  0  0  0
 35 37  1  0  0  0  0
 38 35  1  0  0  0  0
M  END
