1,11,13
 OpenBabel05122313063D

 46 49  0  0  1  0  0  0  0  0999 V2000
   -1.3009   -0.1418    1.3203 C   0  0  0  0  0  3  0  0  0  0  0  0
   -1.0319    1.1784    0.8409 C   0  0  0  0  0  3  0  0  0  0  0  0
   -3.6382   -0.5795    0.4094 C   0  0  0  0  0  0  0  0  0  0  0  0
   -2.3601   -1.2841   -2.5811 C   0  0  2  0  0  0  0  0  0  0  0  0
   -4.9008   -1.1683    0.5947 C   0  0  0  0  0  0  0  0  0  0  0  0
   -1.8051    3.5102    0.5060 C   0  0  0  0  0  0  0  0  0  0  0  0
   -0.9998   -1.4208   -3.2742 C   0  0  0  0  0  0  0  0  0  0  0  0
   -3.3830    0.2775   -0.8122 C   0  0  0  0  0  0  0  0  0  0  0  0
   -2.0157    2.1267    0.2876 C   0  0  0  0  0  0  0  0  0  0  0  0
   -2.6199   -0.7861    1.3780 C   0  0  0  0  0  0  0  0  0  0  0  0
   -2.1882   -0.1571   -1.6122 N   0  0  0  0  0  0  0  0  0  0  0  0
    0.7891   -3.2901   -0.3429 C   0  0  0  0  0  0  0  0  0  0  0  0
    0.0584   -1.7145   -2.2200 C   0  0  0  0  0  3  0  0  0  0  0  0
   -3.1720    1.7340   -0.4453 C   0  0  0  0  0  0  0  0  0  0  0  0
   -0.2645   -2.5151   -1.0895 C   0  0  1  0  0  3  0  0  0  0  0  0
   -2.7307   -2.5993   -1.8964 C   0  0  0  0  0  0  0  0  0  0  0  0
   -2.8959   -1.6310    2.4804 C   0  0  0  0  0  0  0  0  0  0  0  0
   -2.7208    4.4686    0.0595 C   0  0  0  0  0  0  0  0  0  0  0  0
   -4.0897    2.7051   -0.8831 C   0  0  0  0  0  0  0  0  0  0  0  0
   -1.6601   -3.0930   -0.9082 C   0  0  0  0  0  0  0  0  0  0  0  0
   -4.1514   -2.2239    2.6461 C   0  0  0  0  0  0  0  0  0  0  0  0
   -3.8760    4.0669   -0.6309 C   0  0  0  0  0  0  0  0  0  0  0  0
   -5.1644   -1.9858    1.7026 C   0  0  0  0  0  0  0  0  0  0  0  0
   -0.1821    1.6812    1.3326 H   0  0  0  0  0  0  0  0  0  0  0  0
   -0.6019   -0.5118    2.0875 H   0  0  0  0  0  0  0  0  0  0  0  0
   -1.5592   -4.1961   -1.0098 H   0  0  0  0  0  0  0  0  0  0  0  0
    1.1108   -1.6947   -2.5479 H   0  0  0  0  0  0  0  0  0  0  0  0
   -0.7511   -0.4924   -3.8327 H   0  0  0  0  0  0  0  0  0  0  0  0
   -3.1568   -1.0117   -3.3085 H   0  0  0  0  0  0  0  0  0  0  0  0
   -1.0467   -2.2304   -4.0359 H   0  0  0  0  0  0  0  0  0  0  0  0
   -2.1048   -1.7983    3.2276 H   0  0  0  0  0  0  0  0  0  0  0  0
   -4.2765    0.2129   -1.4696 H   0  0  0  0  0  0  0  0  0  0  0  0
   -0.9073    3.8258    1.0595 H   0  0  0  0  0  0  0  0  0  0  0  0
   -1.9765   -2.9400    0.1426 H   0  0  0  0  0  0  0  0  0  0  0  0
   -3.7134   -2.5208   -1.3952 H   0  0  0  0  0  0  0  0  0  0  0  0
   -1.9488    0.6696   -2.1857 H   0  0  0  0  0  0  0  0  0  0  0  0
   -2.8648   -3.3373   -2.7128 H   0  0  0  0  0  0  0  0  0  0  0  0
   -5.6878   -0.9961   -0.1567 H   0  0  0  0  0  0  0  0  0  0  0  0
   -4.3445   -2.8692    3.5158 H   0  0  0  0  0  0  0  0  0  0  0  0
   -6.1559   -2.4465    1.8226 H   0  0  0  0  0  0  0  0  0  0  0  0
    0.8345   -4.3235   -0.7524 H   0  0  0  0  0  0  0  0  0  0  0  0
    0.5265   -3.3910    0.7301 H   0  0  0  0  0  0  0  0  0  0  0  0
    1.7978   -2.8541   -0.4360 H   0  0  0  0  0  0  0  0  0  0  0  0
   -4.9825    2.3849   -1.4432 H   0  0  0  0  0  0  0  0  0  0  0  0
   -4.6020    4.8133   -0.9850 H   0  0  0  0  0  0  0  0  0  0  0  0
   -2.5364    5.5352    0.2560 H   0  0  0  0  0  0  0  0  0  0  0  0
  1 10  1  0  0  0  0
  1 25  1  0  0  0  0
  2  1  1  0  0  0  0
  2 24  1  0  0  0  0
  3  5  2  0  0  0  0
  3 10  1  0  0  0  0
  4 29  1  6  0  0  0
  4 16  1  0  0  0  0
  4 11  1  0  0  0  0
  5 23  1  0  0  0  0
  6 33  1  0  0  0  0
  7  4  1  0  0  0  0
  7 13  1  0  0  0  0
  8 14  1  0  0  0  0
  8  3  1  0  0  0  0
  9  6  1  0  0  0  0
  9  2  1  0  0  0  0
 10 17  2  0  0  0  0
 11  8  1  0  0  0  0
 12 42  1  0  0  0  0
 13 15  1  0  0  0  0
 14  9  2  0  0  0  0
 15 20  1  0  0  0  0
 15 12  1  6  0  0  0
 16 35  1  0  0  0  0
 16 20  1  0  0  0  0
 17 21  1  0  0  0  0
 17 31  1  0  0  0  0
 18 46  1  0  0  0  0
 18  6  2  0  0  0  0
 19 22  2  0  0  0  0
 19 14  1  0  0  0  0
 20 34  1  0  0  0  0
 21 39  1  0  0  0  0
 22 18  1  0  0  0  0
 23 40  1  0  0  0  0
 23 21  2  0  0  0  0
 26 20  1  0  0  0  0
 27 13  1  0  0  0  0
 28  7  1  0  0  0  0
 30  7  1  0  0  0  0
 32  8  1  0  0  0  0
 36 11  1  0  0  0  0
 37 16  1  0  0  0  0
 38  5  1  0  0  0  0
 41 12  1  0  0  0  0
 43 12  1  0  0  0  0
 44 19  1  0  0  0  0
 45 22  1  0  0  0  0
M  END
