1,2,4
 OpenBabel05122313063D

 54 57  0  0  1  0  0  0  0  0999 V2000
    0.8411   -0.2983    1.9304 N   0  0  0  0  0  2  0  0  0  0  0  0
   -0.6468   -0.4386   -0.3127 C   0  0  0  0  0  3  0  0  0  0  0  0
   -1.2983    0.7768   -0.3744 C   0  0  0  0  0  0  0  0  0  0  0  0
    0.9753    1.6034   -0.1729 C   0  0  0  0  0  3  0  0  0  0  0  0
    2.5173    4.9178    0.0345 O   0  0  0  0  0  0  0  0  0  0  0  0
   -0.4107    1.9401   -0.3050 C   0  0  0  0  0  0  0  0  0  0  0  0
   -6.9567    1.3334   -0.7068 O   0  0  0  0  0  0  0  0  0  0  0  0
   -1.3541   -1.7270   -0.3477 C   0  0  0  0  0  0  0  0  0  0  0  0
    0.0511   -1.2824    2.4578 C   0  0  1  0  0  3  0  0  0  0  0  0
   -2.7756    0.9305   -0.4277 C   0  0  0  0  0  0  0  0  0  0  0  0
    1.9078    2.6429   -0.0456 C   0  0  0  0  0  0  0  0  0  0  0  0
    2.9828    2.4460    0.0907 H   0  0  0  0  0  0  0  0  0  0  0  0
    1.5065    3.9998   -0.0736 C   0  0  0  0  0  0  0  0  0  0  0  0
   -0.8038    3.2916   -0.2946 C   0  0  0  0  0  0  0  0  0  0  0  0
   -1.8723    3.5481   -0.3598 H   0  0  0  0  0  0  0  0  0  0  0  0
    1.0745    0.8184    2.6620 C   0  0  0  0  0  0  0  0  0  0  0  0
    1.7177    1.5720    2.1890 H   0  0  0  0  0  0  0  0  0  0  0  0
   -2.2825   -2.0068   -1.3844 C   0  0  0  0  0  0  0  0  0  0  0  0
   -2.4426   -1.2405   -2.1564 H   0  0  0  0  0  0  0  0  0  0  0  0
   -1.1397   -2.7297    0.6418 C   0  0  0  0  0  0  0  0  0  0  0  0
   -3.4048    1.6639   -1.4629 C   0  0  0  0  0  0  0  0  0  0  0  0
   -2.7836    2.1322   -2.2417 H   0  0  0  0  0  0  0  0  0  0  0  0
   -0.0754   -2.5863    1.7155 C   0  0  0  0  0  0  0  0  0  0  0  0
   -0.2279   -3.3885    2.4646 H   0  0  0  0  0  0  0  0  0  0  0  0
    0.9117   -2.7589    1.2358 H   0  0  0  0  0  0  0  0  0  0  0  0
   -4.7949    1.7811   -1.5317 C   0  0  0  0  0  0  0  0  0  0  0  0
   -5.2848    2.3403   -2.3423 H   0  0  0  0  0  0  0  0  0  0  0  0
    0.1417    4.3270   -0.1938 C   0  0  0  0  0  0  0  0  0  0  0  0
   -0.1969    5.3715   -0.2001 H   0  0  0  0  0  0  0  0  0  0  0  0
   -0.5675   -1.1071    3.7078 C   0  0  0  0  0  0  0  0  0  0  0  0
   -1.2133   -1.9104    4.0906 H   0  0  0  0  0  0  0  0  0  0  0  0
   -3.6059    0.3348    0.5425 C   0  0  0  0  0  0  0  0  0  0  0  0
   -3.1396   -0.2345    1.3606 H   0  0  0  0  0  0  0  0  0  0  0  0
   -2.9904   -3.2125   -1.4359 C   0  0  0  0  0  0  0  0  0  0  0  0
   -3.7013   -3.3948   -2.2565 H   0  0  0  0  0  0  0  0  0  0  0  0
   -5.6094    1.1681   -0.5558 C   0  0  0  0  0  0  0  0  0  0  0  0
   -2.7990   -4.1796   -0.4360 C   0  0  0  0  0  0  0  0  0  0  0  0
   -3.3570   -5.1278   -0.4573 H   0  0  0  0  0  0  0  0  0  0  0  0
    0.5031    1.0335    3.9191 C   0  0  0  0  0  0  0  0  0  0  0  0
    0.7273    1.9646    4.4580 H   0  0  0  0  0  0  0  0  0  0  0  0
   -1.8767   -3.9274    0.5900 C   0  0  0  0  0  0  0  0  0  0  0  0
   -1.7111   -4.6867    1.3720 H   0  0  0  0  0  0  0  0  0  0  0  0
   -5.0037    0.4422    0.4896 C   0  0  0  0  0  0  0  0  0  0  0  0
   -5.6093   -0.0420    1.2675 H   0  0  0  0  0  0  0  0  0  0  0  0
   -0.3558    0.0621    4.4469 C   0  0  0  0  0  0  0  0  0  0  0  0
   -0.8429    0.2050    5.4231 H   0  0  0  0  0  0  0  0  0  0  0  0
    2.1762    6.2868    0.0140 C   0  0  0  0  0  0  0  0  0  0  0  0
    1.5080    6.5658    0.8612 H   0  0  0  0  0  0  0  0  0  0  0  0
    1.6734    6.5792   -0.9364 H   0  0  0  0  0  0  0  0  0  0  0  0
    3.1235    6.8513    0.1056 H   0  0  0  0  0  0  0  0  0  0  0  0
   -7.8118    0.7271    0.2390 C   0  0  0  0  0  0  0  0  0  0  0  0
   -8.8461    0.9731   -0.0669 H   0  0  0  0  0  0  0  0  0  0  0  0
   -7.6397    1.1155    1.2690 H   0  0  0  0  0  0  0  0  0  0  0  0
   -7.6956   -0.3808    0.2584 H   0  0  0  0  0  0  0  0  0  0  0  0
  1  9  1  0  0  0  0
  1 16  1  0  0  0  0
  3  2  2  0  0  0  0
  3  6  1  0  0  0  0
  4 11  1  0  0  0  0
  6 14  1  0  0  0  0
  6  4  2  0  0  0  0
  7 36  1  0  0  0  0
  7 51  1  0  0  0  0
  8  2  1  0  0  0  0
  8 20  1  0  0  0  0
  9 23  1  1  0  0  0
  9 30  1  0  0  0  0
 10  3  1  0  0  0  0
 10 32  1  0  0  0  0
 11 12  1  0  0  0  0
 13 11  2  0  0  0  0
 13  5  1  0  0  0  0
 14 28  2  0  0  0  0
 15 14  1  0  0  0  0
 16 39  2  0  0  0  0
 17 16  1  0  0  0  0
 18  8  2  0  0  0  0
 19 18  1  0  0  0  0
 20 23  1  0  0  0  0
 21 10  2  0  0  0  0
 22 21  1  0  0  0  0
 23 24  1  0  0  0  0
 25 23  1  0  0  0  0
 26 21  1  0  0  0  0
 26 36  2  0  0  0  0
 27 26  1  0  0  0  0
 28 13  1  0  0  0  0
 29 28  1  0  0  0  0
 30 31  1  0  0  0  0
 30 45  2  0  0  0  0
 32 33  1  0  0  0  0
 34 18  1  0  0  0  0
 34 37  2  0  0  0  0
 35 34  1  0  0  0  0
 36 43  1  0  0  0  0
 37 41  1  0  0  0  0
 38 37  1  0  0  0  0
 39 45  1  0  0  0  0
 39 40  1  0  0  0  0
 41 20  2  0  0  0  0
 41 42  1  0  0  0  0
 43 32  2  0  0  0  0
 43 44  1  0  0  0  0
 45 46  1  0  0  0  0
 47  5  1  0  0  0  0
 47 50  1  0  0  0  0
 47 48  1  0  0  0  0
 49 47  1  0  0  0  0
 51 54  1  0  0  0  0
 51 53  1  0  0  0  0
 52 51  1  0  0  0  0
M  END
