2,23,37
 OpenBabel05122313063D

 45 48  0  0  1  0  0  0  0  0999 V2000
   -0.9247   -3.2349    1.7987 O   0  0  0  0  0  0  0  0  0  0  0  0
   -0.5863    0.0798    1.8370 N   0  0  0  0  0  2  0  0  0  0  0  0
   -0.1193   -1.1108    2.2876 C   0  0  1  0  0  3  0  0  0  0  0  0
   -0.6805    1.1216    2.7007 C   0  0  0  0  0  0  0  0  0  0  0  0
   -1.0615    2.0596    2.2748 H   0  0  0  0  0  0  0  0  0  0  0  0
   -0.2901    1.0175    4.0376 C   0  0  0  0  0  0  0  0  0  0  0  0
   -0.3764    1.8969    4.6911 H   0  0  0  0  0  0  0  0  0  0  0  0
    0.2028   -0.2063    4.5125 C   0  0  0  0  0  0  0  0  0  0  0  0
    0.5202   -0.3199    5.5598 H   0  0  0  0  0  0  0  0  0  0  0  0
    0.2666   -1.2874    3.6275 C   0  0  0  0  0  0  0  0  0  0  0  0
    0.6083   -2.2798    3.9520 H   0  0  0  0  0  0  0  0  0  0  0  0
   -0.1593   -2.3484    1.3997 C   0  0  0  0  0  0  0  0  0  0  0  0
    0.7960   -2.5889    0.2861 C   0  0  0  0  0  0  0  0  0  0  0  0
    1.3721   -1.5510   -0.5069 C   0  0  0  0  0  0  0  0  0  0  0  0
    2.2885   -1.9311   -1.5191 C   0  0  0  0  0  0  0  0  0  0  0  0
    2.7245   -1.1442   -2.1505 H   0  0  0  0  0  0  0  0  0  0  0  0
    2.6130   -3.2738   -1.7457 C   0  0  0  0  0  0  0  0  0  0  0  0
    3.3193   -3.5325   -2.5499 H   0  0  0  0  0  0  0  0  0  0  0  0
    2.0336   -4.2895   -0.9631 C   0  0  0  0  0  0  0  0  0  0  0  0
    2.2859   -5.3453   -1.1414 H   0  0  0  0  0  0  0  0  0  0  0  0
    1.1266   -3.9406    0.0418 C   0  0  0  0  0  0  0  0  0  0  0  0
    0.6502   -4.7064    0.6716 H   0  0  0  0  0  0  0  0  0  0  0  0
    0.9432   -0.1568   -0.3595 C   0  0  0  0  0  3  0  0  0  0  0  0
    1.8140    0.9130   -0.2936 C   0  0  0  0  0  0  0  0  0  0  0  0
    3.2940    0.7838   -0.2879 C   0  0  0  0  0  0  0  0  0  0  0  0
    3.9438   -0.0380    0.6607 C   0  0  0  0  0  0  0  0  0  0  0  0
    3.3339   -0.5632    1.4113 H   0  0  0  0  0  0  0  0  0  0  0  0
    5.3371   -0.1862    0.6533 C   0  0  0  0  0  0  0  0  0  0  0  0
    5.8218   -0.8325    1.4014 H   0  0  0  0  0  0  0  0  0  0  0  0
    6.1148    0.4894   -0.3014 C   0  0  0  0  0  0  0  0  0  0  0  0
    7.2094    0.3734   -0.3082 H   0  0  0  0  0  0  0  0  0  0  0  0
    5.4854    1.3168   -1.2455 C   0  0  0  0  0  0  0  0  0  0  0  0
    6.0863    1.8484   -1.9996 H   0  0  0  0  0  0  0  0  0  0  0  0
    4.0906    1.4653   -1.2370 C   0  0  0  0  0  0  0  0  0  0  0  0
    3.5998    2.1018   -1.9890 H   0  0  0  0  0  0  0  0  0  0  0  0
    1.1499    2.2120   -0.1509 C   0  0  0  0  0  0  0  0  0  0  0  0
   -0.2782    2.1264   -0.0983 C   0  0  0  0  0  3  0  0  0  0  0  0
   -1.0048    3.3187    0.0855 C   0  0  0  0  0  0  0  0  0  0  0  0
   -2.1034    3.2850    0.1644 H   0  0  0  0  0  0  0  0  0  0  0  0
   -0.3551    4.5653    0.1906 C   0  0  0  0  0  0  0  0  0  0  0  0
   -0.9509    5.4830    0.3195 H   0  0  0  0  0  0  0  0  0  0  0  0
    1.0463    4.6346    0.1448 C   0  0  0  0  0  0  0  0  0  0  0  0
    1.5573    5.6047    0.2430 H   0  0  0  0  0  0  0  0  0  0  0  0
    1.7964    3.4590   -0.0107 C   0  0  0  0  0  0  0  0  0  0  0  0
    2.8963    3.5047   -0.0144 H   0  0  0  0  0  0  0  0  0  0  0  0
  2  3  1  0  0  0  0
  2  4  1  0  0  0  0
  3 12  1  1  0  0  0
  3 10  1  0  0  0  0
  4  6  2  0  0  0  0
  5  4  1  0  0  0  0
  6  8  1  0  0  0  0
  6  7  1  0  0  0  0
  8  9  1  0  0  0  0
 10 11  1  0  0  0  0
 10  8  2  0  0  0  0
 12  1  2  0  0  0  0
 13 12  1  0  0  0  0
 14 23  1  0  0  0  0
 14 13  2  0  0  0  0
 15 14  1  0  0  0  0
 16 15  1  0  0  0  0
 17 15  2  0  0  0  0
 17 19  1  0  0  0  0
 18 17  1  0  0  0  0
 19 21  2  0  0  0  0
 20 19  1  0  0  0  0
 21 13  1  0  0  0  0
 21 22  1  0  0  0  0
 23 24  2  0  0  0  0
 24 25  1  0  0  0  0
 24 36  1  0  0  0  0
 25 26  1  0  0  0  0
 26 27  1  0  0  0  0
 28 26  2  0  0  0  0
 28 29  1  0  0  0  0
 30 28  1  0  0  0  0
 31 30  1  0  0  0  0
 32 34  1  0  0  0  0
 32 30  2  0  0  0  0
 33 32  1  0  0  0  0
 34 25  2  0  0  0  0
 35 34  1  0  0  0  0
 36 37  2  0  0  0  0
 36 44  1  0  0  0  0
 37 38  1  0  0  0  0
 38 39  1  0  0  0  0
 38 40  2  0  0  0  0
 40 41  1  0  0  0  0
 42 40  1  0  0  0  0
 42 43  1  0  0  0  0
 44 42  2  0  0  0  0
 45 44  1  0  0  0  0
M  END
