1,2,4
 OpenBabel05122313063D

 33 34  0  0  1  0  0  0  0  0999 V2000
   -0.6837    1.2144   -0.4995 N   0  0  0  0  0  2  0  0  0  0  0  0
   -0.5255   -1.1352    0.5508 C   0  0  2  0  0  3  0  0  0  0  0  0
    0.1931   -0.7687    1.7395 C   0  0  1  0  0  3  0  0  0  0  0  0
    1.5518   -1.1516    1.5313 C   0  0  0  0  0  3  0  0  0  0  0  0
    2.3766   -0.9719    2.2324 H   0  0  0  0  0  0  0  0  0  0  0  0
    1.6834   -1.7608    0.2423 C   0  0  0  0  0  0  0  0  0  0  0  0
    0.3879   -1.7487   -0.3742 C   0  0  0  0  0  0  0  0  0  0  0  0
   -0.3794   -0.0771    2.9373 C   0  0  0  0  0  0  0  0  0  0  0  0
   -1.2537    0.5429    2.6584 H   0  0  0  0  0  0  0  0  0  0  0  0
    0.3752    0.5752    3.4161 H   0  0  0  0  0  0  0  0  0  0  0  0
   -0.7257   -0.8187    3.6882 H   0  0  0  0  0  0  0  0  0  0  0  0
    2.9353   -2.3415   -0.3391 C   0  0  0  0  0  0  0  0  0  0  0  0
    3.8357   -1.9404    0.1644 H   0  0  0  0  0  0  0  0  0  0  0  0
    3.0219   -2.1176   -1.4198 H   0  0  0  0  0  0  0  0  0  0  0  0
    2.9417   -3.4457   -0.2157 H   0  0  0  0  0  0  0  0  0  0  0  0
    0.0442   -2.2540   -1.7403 C   0  0  0  0  0  0  0  0  0  0  0  0
   -0.9197   -1.8329   -2.0852 H   0  0  0  0  0  0  0  0  0  0  0  0
   -0.0546   -3.3605   -1.7371 H   0  0  0  0  0  0  0  0  0  0  0  0
    0.8267   -1.9839   -2.4758 H   0  0  0  0  0  0  0  0  0  0  0  0
   -1.8974   -0.6898    0.2249 C   0  0  0  0  0  0  0  0  0  0  0  0
   -1.9295    0.6128   -0.3512 C   0  0  0  0  0  0  0  0  0  0  0  0
   -3.1715    1.1799   -0.7166 C   0  0  0  0  0  0  0  0  0  0  0  0
   -3.2198    2.1823   -1.1636 H   0  0  0  0  0  0  0  0  0  0  0  0
   -4.3501    0.4471   -0.5039 C   0  0  0  0  0  0  0  0  0  0  0  0
   -5.3158    0.8914   -0.7902 H   0  0  0  0  0  0  0  0  0  0  0  0
   -4.3161   -0.8363    0.0644 C   0  0  0  0  0  0  0  0  0  0  0  0
   -5.2494   -1.3960    0.2234 H   0  0  0  0  0  0  0  0  0  0  0  0
   -3.0812   -1.4048    0.4299 C   0  0  0  0  0  0  0  0  0  0  0  0
   -3.0367   -2.4097    0.8764 H   0  0  0  0  0  0  0  0  0  0  0  0
   -0.6011    2.5432   -1.0806 C   0  0  0  0  0  0  0  0  0  0  0  0
    0.4567    2.8716   -1.1202 H   0  0  0  0  0  0  0  0  0  0  0  0
   -1.1594    3.2891   -0.4718 H   0  0  0  0  0  0  0  0  0  0  0  0
   -0.9966    2.5584   -2.1208 H   0  0  0  0  0  0  0  0  0  0  0  0
  1 21  1  0  0  0  0
  2 20  1  6  0  0  0
  2  3  1  0  0  0  0
  3  8  1  6  0  0  0
  4  3  1  0  0  0  0
  4  5  1  0  0  0  0
  6  4  1  0  0  0  0
  7  6  2  0  0  0  0
  7  2  1  0  0  0  0
  8 10  1  0  0  0  0
  8 11  1  0  0  0  0
  9  8  1  0  0  0  0
 12 15  1  0  0  0  0
 12 13  1  0  0  0  0
 12  6  1  0  0  0  0
 14 12  1  0  0  0  0
 16 18  1  0  0  0  0
 16  7  1  0  0  0  0
 17 16  1  0  0  0  0
 19 16  1  0  0  0  0
 20 28  1  0  0  0  0
 21 20  2  0  0  0  0
 22 24  2  0  0  0  0
 22 21  1  0  0  0  0
 23 22  1  0  0  0  0
 24 26  1  0  0  0  0
 25 24  1  0  0  0  0
 26 27  1  0  0  0  0
 26 28  2  0  0  0  0
 28 29  1  0  0  0  0
 30  1  1  0  0  0  0
 30 32  1  0  0  0  0
 31 30  1  0  0  0  0
 33 30  1  0  0  0  0
M  END
