3,17,29
 OpenBabel05122313063D

 41 45  0  0  0  0  0  0  0  0999 V2000
    3.1069   -1.2194    0.0000 C   0  0  0  0  0  0  0  0  0  0  0  0
    2.8846   -2.2991   -0.0001 H   0  0  0  0  0  0  0  0  0  0  0  0
    2.0649   -0.3122   -0.0002 C   0  0  0  0  0  2  0  0  0  0  0  0
    2.3662    1.1056   -0.0001 C   0  0  0  0  0  0  0  0  0  0  0  0
    3.6889    1.5487    0.0002 C   0  0  0  0  0  0  0  0  0  0  0  0
    3.9275    2.6244    0.0003 H   0  0  0  0  0  0  0  0  0  0  0  0
    4.7669    0.6227    0.0003 C   0  0  0  0  0  0  0  0  0  0  0  0
    4.4715   -0.7920    0.0003 C   0  0  0  0  0  0  0  0  0  0  0  0
    5.5557   -1.7156    0.0005 C   0  0  0  0  0  0  0  0  0  0  0  0
    5.3286   -2.7929    0.0006 H   0  0  0  0  0  0  0  0  0  0  0  0
    6.8706   -1.2714    0.0006 C   0  0  0  0  0  0  0  0  0  0  0  0
    7.6968   -1.9985    0.0008 H   0  0  0  0  0  0  0  0  0  0  0  0
    7.1607    0.1202    0.0005 C   0  0  0  0  0  0  0  0  0  0  0  0
    8.2074    0.4593    0.0006 H   0  0  0  0  0  0  0  0  0  0  0  0
    6.1292    1.0467    0.0004 C   0  0  0  0  0  0  0  0  0  0  0  0
    6.3478    2.1262    0.0003 H   0  0  0  0  0  0  0  0  0  0  0  0
   -0.0000    1.3919    0.0002 N   0  0  0  0  0  2  0  0  0  0  0  0
    1.2131    2.0182   -0.0000 C   0  0  0  0  0  0  0  0  0  0  0  0
    1.2201    3.4261   -0.0003 C   0  0  0  0  0  0  0  0  0  0  0  0
    2.1747    3.9679   -0.0004 H   0  0  0  0  0  0  0  0  0  0  0  0
    0.0000    4.1166   -0.0004 C   0  0  0  0  0  0  0  0  0  0  0  0
    0.0000    5.2168   -0.0006 H   0  0  0  0  0  0  0  0  0  0  0  0
   -1.2201    3.4261   -0.0003 C   0  0  0  0  0  0  0  0  0  0  0  0
   -2.1746    3.9679   -0.0004 H   0  0  0  0  0  0  0  0  0  0  0  0
   -1.2130    2.0183   -0.0000 C   0  0  0  0  0  0  0  0  0  0  0  0
   -3.6889    1.5488    0.0002 C   0  0  0  0  0  0  0  0  0  0  0  0
   -3.9275    2.6244    0.0002 H   0  0  0  0  0  0  0  0  0  0  0  0
   -2.3662    1.1056   -0.0000 C   0  0  0  0  0  0  0  0  0  0  0  0
   -2.0649   -0.3122   -0.0001 C   0  0  0  0  0  3  0  0  0  0  0  0
   -3.1069   -1.2194    0.0001 C   0  0  0  0  0  0  0  0  0  0  0  0
   -2.8846   -2.2991    0.0000 H   0  0  0  0  0  0  0  0  0  0  0  0
   -4.4714   -0.7920    0.0003 C   0  0  0  0  0  0  0  0  0  0  0  0
   -4.7669    0.6227    0.0003 C   0  0  0  0  0  0  0  0  0  0  0  0
   -6.1292    1.0468    0.0004 C   0  0  0  0  0  0  0  0  0  0  0  0
   -6.3478    2.1263    0.0003 H   0  0  0  0  0  0  0  0  0  0  0  0
   -7.1607    0.1202    0.0005 C   0  0  0  0  0  0  0  0  0  0  0  0
   -8.2074    0.4594    0.0005 H   0  0  0  0  0  0  0  0  0  0  0  0
   -6.8706   -1.2714    0.0006 C   0  0  0  0  0  0  0  0  0  0  0  0
   -7.6968   -1.9985    0.0008 H   0  0  0  0  0  0  0  0  0  0  0  0
   -5.5557   -1.7156    0.0005 C   0  0  0  0  0  0  0  0  0  0  0  0
   -5.3286   -2.7928    0.0006 H   0  0  0  0  0  0  0  0  0  0  0  0
  1  8  2  0  0  0  0
  2  1  1  0  0  0  0
  3  4  1  0  0  0  0
  3  1  1  0  0  0  0
  4 18  2  0  0  0  0
  4  5  1  0  0  0  0
  5  6  1  0  0  0  0
  5  7  2  0  0  0  0
  7 15  1  0  0  0  0
  8  7  1  0  0  0  0
  8  9  1  0  0  0  0
  9 10  1  0  0  0  0
  9 11  2  0  0  0  0
 11 12  1  0  0  0  0
 13 14  1  0  0  0  0
 13 11  1  0  0  0  0
 15 13  2  0  0  0  0
 16 15  1  0  0  0  0
 18 17  1  0  0  0  0
 19 18  1  0  0  0  0
 20 19  1  0  0  0  0
 21 19  2  0  0  0  0
 21 23  1  0  0  0  0
 22 21  1  0  0  0  0
 23 25  2  0  0  0  0
 24 23  1  0  0  0  0
 25 28  1  0  0  0  0
 25 17  1  0  0  0  0
 26 27  1  0  0  0  0
 26 33  1  0  0  0  0
 28 26  2  0  0  0  0
 29 28  1  0  0  0  0
 29 30  2  0  0  0  0
 30 32  1  0  0  0  0
 31 30  1  0  0  0  0
 32 40  1  0  0  0  0
 33 32  2  0  0  0  0
 33 34  1  0  0  0  0
 34 36  2  0  0  0  0
 35 34  1  0  0  0  0
 36 37  1  0  0  0  0
 36 38  1  0  0  0  0
 38 39  1  0  0  0  0
 40 38  2  0  0  0  0
 40 41  1  0  0  0  0
M  END
