1,3,23
 OpenBabel05122313063D

 40 41  0  0  0  0  0  0  0  0999 V2000
    0.9880   -1.8118    0.0000 N   0  0  0  0  0  2  0  0  0  0  0  0
    4.5603   -1.1892   -0.0004 N   0  0  0  0  0  0  0  0  0  0  0  0
   -1.3339   -0.6536    0.0000 C   0  0  0  0  0  3  0  0  0  0  0  0
   -2.6212   -0.0814   -0.0000 C   0  0  0  0  0  0  0  0  0  0  0  0
   -2.7085    1.0112   -0.0001 H   0  0  0  0  0  0  0  0  0  0  0  0
   -3.8357   -0.8157   -0.0000 C   0  0  0  0  0  0  0  0  0  0  0  0
   -3.7625   -2.2230   -0.0000 C   0  0  0  0  0  0  0  0  0  0  0  0
   -4.6746   -2.8353   -0.0000 H   0  0  0  0  0  0  0  0  0  0  0  0
   -2.5136   -2.8596    0.0000 C   0  0  0  0  0  0  0  0  0  0  0  0
   -2.4587   -3.9612    0.0001 H   0  0  0  0  0  0  0  0  0  0  0  0
   -1.3247   -2.0996    0.0001 C   0  0  0  0  0  0  0  0  0  0  0  0
   -0.0097   -2.6770    0.0001 C   0  0  0  0  0  3  0  0  0  0  0  0
    0.1836   -3.7663    0.0000 H   0  0  0  0  0  0  0  0  0  0  0  0
    2.3164   -2.1432   -0.0000 C   0  0  0  0  0  0  0  0  0  0  0  0
    2.6115   -3.2033    0.0002 H   0  0  0  0  0  0  0  0  0  0  0  0
    3.1747   -1.0374   -0.0001 C   0  0  0  0  0  0  0  0  0  0  0  0
    5.3987   -0.0890   -0.0002 C   0  0  0  0  0  0  0  0  0  0  0  0
    6.4750   -0.3079   -0.0003 H   0  0  0  0  0  0  0  0  0  0  0  0
    4.8693    1.1761   -0.0000 C   0  0  0  0  0  0  0  0  0  0  0  0
    5.5479    2.0412    0.0000 H   0  0  0  0  0  0  0  0  0  0  0  0
    3.4484    1.3497    0.0000 C   0  0  0  0  0  0  0  0  0  0  0  0
    3.0907    2.3891    0.0001 H   0  0  0  0  0  0  0  0  0  0  0  0
    2.5417    0.2853    0.0000 C   0  0  0  0  0  3  0  0  0  0  0  0
   -5.1711   -0.0491   -0.0002 C   0  0  0  0  0  0  0  0  0  0  0  0
   -5.2494    0.8421    1.2610 C   0  0  0  0  0  0  0  0  0  0  0  0
   -4.4197    1.5763    1.2932 H   0  0  0  0  0  0  0  0  0  0  0  0
   -5.1904    0.2267    2.1817 H   0  0  0  0  0  0  0  0  0  0  0  0
   -6.2040    1.4089    1.2841 H   0  0  0  0  0  0  0  0  0  0  0  0
   -5.2489    0.8423   -1.2612 C   0  0  0  0  0  0  0  0  0  0  0  0
   -4.4191    1.5763   -1.2931 H   0  0  0  0  0  0  0  0  0  0  0  0
   -6.2034    1.4093   -1.2845 H   0  0  0  0  0  0  0  0  0  0  0  0
   -5.1898    0.2270   -2.1821 H   0  0  0  0  0  0  0  0  0  0  0  0
   -6.3868   -0.9918   -0.0004 C   0  0  0  0  0  0  0  0  0  0  0  0
   -7.3256   -0.4010   -0.0004 H   0  0  0  0  0  0  0  0  0  0  0  0
   -6.4004   -1.6435    0.8964 H   0  0  0  0  0  0  0  0  0  0  0  0
   -6.4003   -1.6431   -0.8976 H   0  0  0  0  0  0  0  0  0  0  0  0
    5.1213   -2.5271   -0.0006 C   0  0  0  0  0  0  0  0  0  0  0  0
    6.2248   -2.4692   -0.0014 H   0  0  0  0  0  0  0  0  0  0  0  0
    4.7894   -3.0933   -0.8977 H   0  0  0  0  0  0  0  0  0  0  0  0
    4.7906   -3.0932    0.8969 H   0  0  0  0  0  0  0  0  0  0  0  0
  1 12  1  0  0  0  0
  2 17  1  0  0  0  0
  2 16  1  0  0  0  0
  3 11  1  0  0  0  0
  4  6  1  0  0  0  0
  4  3  2  0  0  0  0
  5  4  1  0  0  0  0
  6  7  2  0  0  0  0
  7  9  1  0  0  0  0
  8  7  1  0  0  0  0
  9 10  1  0  0  0  0
  9 11  2  0  0  0  0
 11 12  1  0  0  0  0
 13 12  1  0  0  0  0
 14  1  1  0  0  0  0
 14 15  1  0  0  0  0
 16 14  2  0  0  0  0
 16 23  1  0  0  0  0
 17 19  2  0  0  0  0
 18 17  1  0  0  0  0
 19 21  1  0  0  0  0
 19 20  1  0  0  0  0
 21 22  1  0  0  0  0
 23 21  2  0  0  0  0
 24  6  1  0  0  0  0
 24 25  1  0  0  0  0
 25 28  1  0  0  0  0
 25 26  1  0  0  0  0
 25 27  1  0  0  0  0
 29 24  1  0  0  0  0
 30 29  1  0  0  0  0
 31 29  1  0  0  0  0
 32 29  1  0  0  0  0
 33 34  1  0  0  0  0
 33 24  1  0  0  0  0
 33 35  1  0  0  0  0
 36 33  1  0  0  0  0
 37  2  1  0  0  0  0
 37 40  1  0  0  0  0
 38 37  1  0  0  0  0
 39 37  1  0  0  0  0
M  END
