1,7,35
 OpenBabel05122313063D

 54 59  0  0  0  0  0  0  0  0999 V2000
   -0.7595   -0.0004   -1.1727 N   0  0  0  0  0  0  0  0  0  0  0  0
   -0.0618   -0.0006   -1.9333 H   0  0  0  0  0  0  0  0  0  0  0  0
   -1.5682   -1.2609   -1.4251 C   0  0  0  0  0  0  0  0  0  0  0  0
   -2.1546   -1.0756   -2.3497 H   0  0  0  0  0  0  0  0  0  0  0  0
   -0.6127   -2.3972   -1.7118 C   0  0  0  0  0  0  0  0  0  0  0  0
    0.3435   -2.7887   -0.7356 C   0  0  0  0  0  0  0  0  0  0  0  0
    0.4256   -2.1595    0.5909 C   0  0  0  0  0  3  0  0  0  0  0  0
    1.2890   -2.5148    1.1803 H   0  0  0  0  0  0  0  0  0  0  0  0
   -0.6653   -1.6257    1.3717 C   0  0  0  0  0  3  0  0  0  0  0  0
   -0.5014   -1.6561    2.4625 H   0  0  0  0  0  0  0  0  0  0  0  0
   -2.0907   -1.6934    1.0183 C   0  0  0  0  0  0  0  0  0  0  0  0
   -2.5477   -1.5571   -0.3164 C   0  0  0  0  0  0  0  0  0  0  0  0
   -3.9144   -1.6965   -0.6069 C   0  0  0  0  0  0  0  0  0  0  0  0
   -4.2554   -1.5910   -1.6489 H   0  0  0  0  0  0  0  0  0  0  0  0
   -4.8465   -1.9373    0.4104 C   0  0  0  0  0  0  0  0  0  0  0  0
   -5.9147   -2.0347    0.1679 H   0  0  0  0  0  0  0  0  0  0  0  0
   -4.4081   -2.0314    1.7407 C   0  0  0  0  0  0  0  0  0  0  0  0
   -5.1315   -2.2063    2.5509 H   0  0  0  0  0  0  0  0  0  0  0  0
   -3.0463   -1.9074    2.0367 C   0  0  0  0  0  0  0  0  0  0  0  0
   -2.7015   -1.9983    3.0786 H   0  0  0  0  0  0  0  0  0  0  0  0
    1.2690   -3.8023   -1.0771 C   0  0  0  0  0  0  0  0  0  0  0  0
    2.0188   -4.1078   -0.3306 H   0  0  0  0  0  0  0  0  0  0  0  0
    1.2327   -4.4330   -2.3262 C   0  0  0  0  0  0  0  0  0  0  0  0
    1.9573   -5.2273   -2.5596 H   0  0  0  0  0  0  0  0  0  0  0  0
    0.2683   -4.0570   -3.2749 C   0  0  0  0  0  0  0  0  0  0  0  0
    0.2306   -4.5492   -4.2577 H   0  0  0  0  0  0  0  0  0  0  0  0
   -0.6431   -3.0383   -2.9628 C   0  0  0  0  0  0  0  0  0  0  0  0
   -1.3950   -2.7285   -3.7061 H   0  0  0  0  0  0  0  0  0  0  0  0
   -1.5683    1.2598   -1.4260 C   0  0  0  0  0  0  0  0  0  0  0  0
   -2.1547    1.0738   -2.3504 H   0  0  0  0  0  0  0  0  0  0  0  0
   -2.5477    1.5567   -0.3174 C   0  0  0  0  0  0  0  0  0  0  0  0
   -2.0907    1.6942    1.0172 C   0  0  0  0  0  0  0  0  0  0  0  0
   -0.6652    1.6268    1.3705 C   0  0  0  0  0  3  0  0  0  0  0  0
   -0.5012    1.6581    2.4613 H   0  0  0  0  0  0  0  0  0  0  0  0
    0.4256    2.1600    0.5892 C   0  0  0  0  0  3  0  0  0  0  0  0
    1.2890    2.5157    1.1782 H   0  0  0  0  0  0  0  0  0  0  0  0
    0.3434    2.7882   -0.7378 C   0  0  0  0  0  0  0  0  0  0  0  0
   -0.6129    2.3959   -1.7136 C   0  0  0  0  0  0  0  0  0  0  0  0
   -0.6435    3.0362   -2.9650 C   0  0  0  0  0  0  0  0  0  0  0  0
   -1.3954    2.7258   -3.7081 H   0  0  0  0  0  0  0  0  0  0  0  0
    0.2679    4.0546   -3.2780 C   0  0  0  0  0  0  0  0  0  0  0  0
    0.2300    4.5461   -4.2611 H   0  0  0  0  0  0  0  0  0  0  0  0
    1.2323    4.4314   -2.3296 C   0  0  0  0  0  0  0  0  0  0  0  0
    1.9569    5.2255   -2.5637 H   0  0  0  0  0  0  0  0  0  0  0  0
    1.2688    3.8016   -1.0801 C   0  0  0  0  0  0  0  0  0  0  0  0
    2.0186    4.1076   -0.3339 H   0  0  0  0  0  0  0  0  0  0  0  0
   -3.0462    1.9089    2.0354 C   0  0  0  0  0  0  0  0  0  0  0  0
   -2.7013    2.0006    3.0772 H   0  0  0  0  0  0  0  0  0  0  0  0
   -4.4080    2.0325    1.7395 C   0  0  0  0  0  0  0  0  0  0  0  0
   -5.1313    2.2080    2.5496 H   0  0  0  0  0  0  0  0  0  0  0  0
   -4.8466    1.9373    0.4093 C   0  0  0  0  0  0  0  0  0  0  0  0
   -5.9148    2.0344    0.1668 H   0  0  0  0  0  0  0  0  0  0  0  0
   -3.9145    1.6958   -0.6079 C   0  0  0  0  0  0  0  0  0  0  0  0
   -4.2556    1.5895   -1.6498 H   0  0  0  0  0  0  0  0  0  0  0  0
  2  1  1  0  0  0  0
  3  1  1  0  0  0  0
  3 12  1  0  0  0  0
  4  3  1  0  0  0  0
  5  3  1  0  0  0  0
  5  6  1  0  0  0  0
  6  7  1  0  0  0  0
  7  8  1  0  0  0  0
  7  9  1  0  0  0  0
  9 10  1  0  0  0  0
 11  9  1  0  0  0  0
 11 19  1  0  0  0  0
 12 11  2  0  0  0  0
 13 12  1  0  0  0  0
 13 15  2  0  0  0  0
 14 13  1  0  0  0  0
 15 17  1  0  0  0  0
 16 15  1  0  0  0  0
 17 19  2  0  0  0  0
 17 18  1  0  0  0  0
 19 20  1  0  0  0  0
 21  6  2  0  0  0  0
 21 22  1  0  0  0  0
 23 21  1  0  0  0  0
 24 23  1  0  0  0  0
 25 27  1  0  0  0  0
 25 23  2  0  0  0  0
 26 25  1  0  0  0  0
 27  5  2  0  0  0  0
 28 27  1  0  0  0  0
 29  1  1  0  0  0  0
 29 31  1  0  0  0  0
 30 29  1  0  0  0  0
 31 32  1  0  0  0  0
 32 33  1  0  0  0  0
 32 47  2  0  0  0  0
 33 34  1  0  0  0  0
 35 36  1  0  0  0  0
 35 33  1  0  0  0  0
 37 35  1  0  0  0  0
 38 29  1  0  0  0  0
 38 37  2  0  0  0  0
 39 38  1  0  0  0  0
 40 39  1  0  0  0  0
 41 39  2  0  0  0  0
 41 43  1  0  0  0  0
 42 41  1  0  0  0  0
 43 45  2  0  0  0  0
 44 43  1  0  0  0  0
 45 37  1  0  0  0  0
 45 46  1  0  0  0  0
 47 48  1  0  0  0  0
 49 47  1  0  0  0  0
 49 50  1  0  0  0  0
 51 49  2  0  0  0  0
 52 51  1  0  0  0  0
 53 31  2  0  0  0  0
 53 51  1  0  0  0  0
 54 53  1  0  0  0  0
M  END
