1,2,29
 OpenBabel05122313063D

 29 31  0  0  0  0  0  0  0  0999 V2000
    0.5360   -1.5639   -0.0008 N   0  0  0  0  0  2  0  0  0  0  0  0
    1.5719    0.8350    0.0005 C   0  0  0  0  0  3  0  0  0  0  0  0
    2.1930    2.0974    0.0012 C   0  0  0  0  0  0  0  0  0  0  0  0
    1.5835    3.0093    0.0015 H   0  0  0  0  0  0  0  0  0  0  0  0
    3.6048    2.2718    0.0016 C   0  0  0  0  0  0  0  0  0  0  0  0
    4.0145    3.2955    0.0022 H   0  0  0  0  0  0  0  0  0  0  0  0
    4.4724    1.1876    0.0014 C   0  0  0  0  0  0  0  0  0  0  0  0
    5.5643    1.3283    0.0018 H   0  0  0  0  0  0  0  0  0  0  0  0
    3.9331   -0.1306    0.0008 C   0  0  0  0  0  0  0  0  0  0  0  0
    2.5004   -0.2750    0.0003 C   0  0  0  0  0  0  0  0  0  0  0  0
    4.7381   -1.3092    0.0005 C   0  0  0  0  0  0  0  0  0  0  0  0
    5.8346   -1.2041    0.0009 H   0  0  0  0  0  0  0  0  0  0  0  0
    4.1554   -2.5731   -0.0002 C   0  0  0  0  0  0  0  0  0  0  0  0
    4.7940   -3.4699   -0.0003 H   0  0  0  0  0  0  0  0  0  0  0  0
    2.7487   -2.7286   -0.0007 C   0  0  0  0  0  0  0  0  0  0  0  0
    2.3128   -3.7379   -0.0012 H   0  0  0  0  0  0  0  0  0  0  0  0
    1.9385   -1.5885   -0.0005 C   0  0  0  0  0  0  0  0  0  0  0  0
   -0.2303   -2.6385   -0.0017 C   0  0  0  0  0  3  0  0  0  0  0  0
    0.1958   -3.6582   -0.0025 H   0  0  0  0  0  0  0  0  0  0  0  0
   -1.6332   -2.3809   -0.0013 C   0  0  0  0  0  0  0  0  0  0  0  0
   -2.5955   -3.4241   -0.0016 C   0  0  0  0  0  0  0  0  0  0  0  0
   -2.2588   -4.4742   -0.0028 H   0  0  0  0  0  0  0  0  0  0  0  0
   -3.9535   -3.1144   -0.0004 C   0  0  0  0  0  0  0  0  0  0  0  0
   -4.7149   -3.9088   -0.0006 H   0  0  0  0  0  0  0  0  0  0  0  0
   -4.3322   -1.7543    0.0015 C   0  0  0  0  0  0  0  0  0  0  0  0
   -5.4024   -1.4895    0.0027 H   0  0  0  0  0  0  0  0  0  0  0  0
   -3.3713   -0.7324    0.0017 C   0  0  0  0  0  0  0  0  0  0  0  0
   -3.7624    0.2953    0.0033 H   0  0  0  0  0  0  0  0  0  0  0  0
   -1.9677   -0.9660    0.0001 C   0  0  0  0  0  3  0  0  0  0  0  0
  1 17  1  0  0  0  0
  2  3  1  0  0  0  0
  3  4  1  0  0  0  0
  3  5  2  0  0  0  0
  5  6  1  0  0  0  0
  7  5  1  0  0  0  0
  7  8  1  0  0  0  0
  9  7  2  0  0  0  0
 10  2  2  0  0  0  0
 10  9  1  0  0  0  0
 11  9  1  0  0  0  0
 11 12  1  0  0  0  0
 13 11  2  0  0  0  0
 14 13  1  0  0  0  0
 15 17  2  0  0  0  0
 15 13  1  0  0  0  0
 16 15  1  0  0  0  0
 17 10  1  0  0  0  0
 18 20  1  0  0  0  0
 18  1  1  0  0  0  0
 19 18  1  0  0  0  0
 20 29  1  0  0  0  0
 21 20  2  0  0  0  0
 21 23  1  0  0  0  0
 22 21  1  0  0  0  0
 23 25  2  0  0  0  0
 24 23  1  0  0  0  0
 25 27  1  0  0  0  0
 25 26  1  0  0  0  0
 27 28  1  0  0  0  0
 29 27  2  0  0  0  0
M  END
