5,6,17
 OpenBabel05122313063D

 53 55  0  0  0  0  0  0  0  0999 V2000
    1.2102    3.7702    0.0001 C   0  0  0  0  0  0  0  0  0  0  0  0
    2.1625    4.3165    0.0001 H   0  0  0  0  0  0  0  0  0  0  0  0
   -3.1264   -0.8822   -0.0001 C   0  0  0  0  0  0  0  0  0  0  0  0
   -2.9065   -1.9633   -0.0001 H   0  0  0  0  0  0  0  0  0  0  0  0
   -2.0613    0.0216   -0.0001 C   0  0  0  0  0  2  0  0  0  0  0  0
   -0.0005    1.7274   -0.0000 N   0  0  0  0  0  2  0  0  0  0  0  0
   -0.0144    4.4539    0.0000 C   0  0  0  0  0  0  0  0  0  0  0  0
   -0.0207    5.5543    0.0001 H   0  0  0  0  0  0  0  0  0  0  0  0
    3.1076   -0.8741   -0.0000 C   0  0  0  0  0  0  0  0  0  0  0  0
    2.8436   -1.9442   -0.0001 H   0  0  0  0  0  0  0  0  0  0  0  0
    3.7061    1.8673    0.0001 C   0  0  0  0  0  0  0  0  0  0  0  0
    3.9621    2.9387    0.0001 H   0  0  0  0  0  0  0  0  0  0  0  0
    4.7376    0.9190    0.0001 C   0  0  0  0  0  0  0  0  0  0  0  0
    5.7760    1.2760    0.0001 H   0  0  0  0  0  0  0  0  0  0  0  0
   -1.2318    3.7565    0.0000 C   0  0  0  0  0  0  0  0  0  0  0  0
   -2.1893    4.2935   -0.0000 H   0  0  0  0  0  0  0  0  0  0  0  0
    2.0641    0.0497   -0.0000 C   0  0  0  0  0  3  0  0  0  0  0  0
    1.2093    2.3620    0.0000 C   0  0  0  0  0  0  0  0  0  0  0  0
    2.3611    1.4490    0.0000 C   0  0  0  0  0  0  0  0  0  0  0  0
   -3.7013    1.8516   -0.0000 C   0  0  0  0  0  0  0  0  0  0  0  0
   -3.9472    2.9252   -0.0000 H   0  0  0  0  0  0  0  0  0  0  0  0
   -2.3600    1.4239   -0.0000 C   0  0  0  0  0  0  0  0  0  0  0  0
   -1.2147    2.3486   -0.0000 C   0  0  0  0  0  0  0  0  0  0  0  0
   -5.4623   -2.4079   -1.2627 C   0  0  0  0  0  0  0  0  0  0  0  0
   -6.2555   -3.1837   -1.2796 H   0  0  0  0  0  0  0  0  0  0  0  0
   -4.4835   -2.9255   -1.2995 H   0  0  0  0  0  0  0  0  0  0  0  0
   -5.5559   -1.7980   -2.1838 H   0  0  0  0  0  0  0  0  0  0  0  0
   -5.6002   -1.5263    0.0001 C   0  0  0  0  0  0  0  0  0  0  0  0
   -4.4821   -0.4705   -0.0001 C   0  0  0  0  0  0  0  0  0  0  0  0
    4.4647   -0.4672    0.0000 C   0  0  0  0  0  0  0  0  0  0  0  0
   -4.7439    0.9160   -0.0001 C   0  0  0  0  0  0  0  0  0  0  0  0
   -5.7785    1.2832   -0.0001 H   0  0  0  0  0  0  0  0  0  0  0  0
    5.5748   -1.5308    0.0000 C   0  0  0  0  0  0  0  0  0  0  0  0
    5.4266   -2.4108   -1.2627 C   0  0  0  0  0  0  0  0  0  0  0  0
    4.4403   -2.9133   -1.2989 H   0  0  0  0  0  0  0  0  0  0  0  0
    6.2099   -3.1967   -1.2784 H   0  0  0  0  0  0  0  0  0  0  0  0
    5.5297   -1.8020   -2.1837 H   0  0  0  0  0  0  0  0  0  0  0  0
   -7.0025   -0.8934   -0.0004 C   0  0  0  0  0  0  0  0  0  0  0  0
   -7.7731   -1.6903   -0.0003 H   0  0  0  0  0  0  0  0  0  0  0  0
   -7.1721   -0.2663   -0.8988 H   0  0  0  0  0  0  0  0  0  0  0  0
   -7.1725   -0.2658    0.8976 H   0  0  0  0  0  0  0  0  0  0  0  0
   -5.4626   -2.4070    1.2635 C   0  0  0  0  0  0  0  0  0  0  0  0
   -6.2558   -3.1828    1.2808 H   0  0  0  0  0  0  0  0  0  0  0  0
   -5.5565   -1.7964    2.1841 H   0  0  0  0  0  0  0  0  0  0  0  0
   -4.4837   -2.9244    1.3010 H   0  0  0  0  0  0  0  0  0  0  0  0
    5.4266   -2.4108    1.2628 C   0  0  0  0  0  0  0  0  0  0  0  0
    4.4403   -2.9133    1.2990 H   0  0  0  0  0  0  0  0  0  0  0  0
    5.5298   -1.8020    2.1838 H   0  0  0  0  0  0  0  0  0  0  0  0
    6.2100   -3.1967    1.2785 H   0  0  0  0  0  0  0  0  0  0  0  0
    6.9826   -0.9107    0.0000 C   0  0  0  0  0  0  0  0  0  0  0  0
    7.1585   -0.2849   -0.8982 H   0  0  0  0  0  0  0  0  0  0  0  0
    7.7460   -1.7147    0.0000 H   0  0  0  0  0  0  0  0  0  0  0  0
    7.1585   -0.2848    0.8983 H   0  0  0  0  0  0  0  0  0  0  0  0
  1  2  1  0  0  0  0
  3 29  2  0  0  0  0
  3  5  1  0  0  0  0
  4  3  1  0  0  0  0
  5 22  1  0  0  0  0
  6 18  1  0  0  0  0
  7  1  1  0  0  0  0
  7  8  1  0  0  0  0
  9 30  1  0  0  0  0
 10  9  1  0  0  0  0
 11 13  1  0  0  0  0
 11 12  1  0  0  0  0
 13 14  1  0  0  0  0
 15  7  2  0  0  0  0
 16 15  1  0  0  0  0
 17  9  2  0  0  0  0
 17 19  1  0  0  0  0
 18  1  2  0  0  0  0
 19 18  1  0  0  0  0
 19 11  2  0  0  0  0
 20 21  1  0  0  0  0
 22 20  1  0  0  0  0
 22 23  2  0  0  0  0
 23  6  1  0  0  0  0
 23 15  1  0  0  0  0
 24 28  1  0  0  0  0
 25 24  1  0  0  0  0
 26 24  1  0  0  0  0
 27 24  1  0  0  0  0
 28 42  1  0  0  0  0
 29 31  1  0  0  0  0
 29 28  1  0  0  0  0
 30 13  2  0  0  0  0
 31 32  1  0  0  0  0
 31 20  2  0  0  0  0
 33 30  1  0  0  0  0
 33 46  1  0  0  0  0
 34 33  1  0  0  0  0
 35 34  1  0  0  0  0
 36 34  1  0  0  0  0
 37 34  1  0  0  0  0
 38 39  1  0  0  0  0
 38 28  1  0  0  0  0
 38 41  1  0  0  0  0
 40 38  1  0  0  0  0
 42 43  1  0  0  0  0
 42 45  1  0  0  0  0
 42 44  1  0  0  0  0
 46 49  1  0  0  0  0
 46 47  1  0  0  0  0
 46 48  1  0  0  0  0
 50 52  1  0  0  0  0
 50 33  1  0  0  0  0
 50 53  1  0  0  0  0
 51 50  1  0  0  0  0
M  END
