1,2,16
 OpenBabel05122313063D

 25 26  0  0  1  0  0  0  0  0999 V2000
   -1.2918   -2.0125   -0.3729 N   0  0  0  0  0  2  0  0  0  0  0  0
   -2.8977    0.3253   -0.3002 C   0  0  0  0  0  3  0  0  0  0  0  0
   -3.1435    0.5728   -1.3587 H   0  0  0  0  0  0  0  0  0  0  0  0
   -3.8091   -1.1736    0.1866 S   0  0  0  0  0  0  0  0  0  0  0  0
   -2.5806   -2.3804   -0.1034 C   0  0  2  0  0  3  0  0  0  0  0  0
   -2.9448   -3.7506   -0.0396 C   0  0  0  0  0  0  0  0  0  0  0  0
   -3.9905   -4.0149    0.1727 H   0  0  0  0  0  0  0  0  0  0  0  0
   -1.9801   -4.7293   -0.2563 C   0  0  0  0  0  0  0  0  0  0  0  0
   -2.2543   -5.7940   -0.2084 H   0  0  0  0  0  0  0  0  0  0  0  0
   -0.6574   -4.3405   -0.5502 C   0  0  0  0  0  0  0  0  0  0  0  0
    0.1344   -5.0783   -0.7390 H   0  0  0  0  0  0  0  0  0  0  0  0
   -0.3696   -2.9783   -0.6004 C   0  0  0  0  0  0  0  0  0  0  0  0
    0.6444   -2.6194   -0.8315 H   0  0  0  0  0  0  0  0  0  0  0  0
   -3.2133    1.5192    0.5685 C   0  0  0  0  0  0  0  0  0  0  0  0
   -4.1591    1.5896    1.3462 O   0  0  0  0  0  0  0  0  0  0  0  0
   -0.9454    2.1067   -0.1679 C   0  0  0  0  0  3  0  0  0  0  0  0
   -2.1822    2.5766    0.3450 C   0  0  0  0  0  0  0  0  0  0  0  0
   -2.3976    3.9343    0.6397 C   0  0  0  0  0  0  0  0  0  0  0  0
   -3.3651    4.2357    1.0716 H   0  0  0  0  0  0  0  0  0  0  0  0
   -1.3802    4.8612    0.3811 C   0  0  0  0  0  0  0  0  0  0  0  0
   -1.5325    5.9303    0.5946 H   0  0  0  0  0  0  0  0  0  0  0  0
   -0.1555    4.4170   -0.1522 C   0  0  0  0  0  0  0  0  0  0  0  0
    0.6427    5.1468   -0.3642 H   0  0  0  0  0  0  0  0  0  0  0  0
    0.0704    3.0523   -0.4083 C   0  0  0  0  0  0  0  0  0  0  0  0
    1.0474    2.7356   -0.8037 H   0  0  0  0  0  0  0  0  0  0  0  0
  1  5  1  0  0  0  0
  2  4  1  0  0  0  0
  2 14  1  0  0  0  0
  3  2  1  0  0  0  0
  5  6  1  0  0  0  0
  5  4  1  1  0  0  0
  6  7  1  0  0  0  0
  8  9  1  0  0  0  0
  8  6  2  0  0  0  0
 10  8  1  0  0  0  0
 11 10  1  0  0  0  0
 12 10  2  0  0  0  0
 12  1  1  0  0  0  0
 13 12  1  0  0  0  0
 14 15  2  0  0  0  0
 16 17  1  0  0  0  0
 17 14  1  0  0  0  0
 17 18  2  0  0  0  0
 18 19  1  0  0  0  0
 20 21  1  0  0  0  0
 20 18  1  0  0  0  0
 22 20  2  0  0  0  0
 23 22  1  0  0  0  0
 24 16  2  0  0  0  0
 24 22  1  0  0  0  0
 25 24  1  0  0  0  0
M  END
