3,4,19
 OpenBabel05122313063D

 19 19  0  0  1  0  0  0  0  0999 V2000
   -1.3679   -2.8731   -0.3970 O   0  0  0  0  0  0  0  0  0  0  0  0
   -1.3675    2.8730    0.3989 O   0  0  0  0  0  0  0  0  0  0  0  0
    1.1582   -0.0000    0.0003 N   0  0  0  0  0  2  0  0  0  0  0  0
   -0.5625   -2.0016   -0.1636 C   0  0  0  0  0  3  0  0  0  0  0  0
    0.9215   -2.3823    0.1025 C   0  0  0  0  0  0  0  0  0  0  0  0
    0.9296   -2.8050    1.1333 H   0  0  0  0  0  0  0  0  0  0  0  0
    1.2467   -3.2041   -0.5704 H   0  0  0  0  0  0  0  0  0  0  0  0
    1.8145   -1.1862    0.0369 C   0  0  2  0  0  3  0  0  0  0  0  0
    3.2172   -1.2116    0.0254 C   0  0  0  0  0  0  0  0  0  0  0  0
    3.7427   -2.1766    0.0474 H   0  0  0  0  0  0  0  0  0  0  0  0
    3.9217   -0.0001    0.0001 C   0  0  0  0  0  0  0  0  0  0  0  0
    5.0220   -0.0001    0.0000 H   0  0  0  0  0  0  0  0  0  0  0  0
    3.2172    1.2115   -0.0250 C   0  0  0  0  0  0  0  0  0  0  0  0
    3.7428    2.1764   -0.0472 H   0  0  0  0  0  0  0  0  0  0  0  0
    1.8146    1.1862   -0.0364 C   0  0  0  0  0  0  0  0  0  0  0  0
    0.9216    2.3823   -0.1017 C   0  0  0  0  0  0  0  0  0  0  0  0
    0.9296    2.8051   -1.1325 H   0  0  0  0  0  0  0  0  0  0  0  0
    1.2469    3.2040    0.5712 H   0  0  0  0  0  0  0  0  0  0  0  0
   -0.5624    2.0016    0.1644 C   0  0  0  0  0  3  0  0  0  0  0  0
  1  4  2  0  0  0  0
  3  8  1  0  0  0  0
  4  5  1  0  0  0  0
  5  6  1  0  0  0  0
  7  5  1  0  0  0  0
  8  5  1  1  0  0  0
  9  8  1  0  0  0  0
  9 10  1  0  0  0  0
 11  9  2  0  0  0  0
 12 11  1  0  0  0  0
 13 11  1  0  0  0  0
 14 13  1  0  0  0  0
 15 13  2  0  0  0  0
 15  3  1  0  0  0  0
 16 15  1  0  0  0  0
 16 19  1  0  0  0  0
 16 18  1  0  0  0  0
 17 16  1  0  0  0  0
 19  2  2  0  0  0  0
M  END
