3,4,28
 OpenBabel05122313063D

 44 46  0  0  1  0  0  0  0  0999 V2000
   -2.0041   -1.6652    0.1865 N   0  0  0  0  0  0  0  0  0  0  0  0
   -1.2976   -2.1009   -1.8161 N   0  0  0  0  0  0  0  0  0  0  0  0
    0.2294   -0.5694    1.7139 N   0  0  0  0  0  2  0  0  0  0  0  0
   -1.0800   -1.2533   -0.7495 C   0  0  0  0  0  2  0  0  0  0  0  0
   -2.7681   -2.7312   -0.2717 C   0  0  0  0  0  0  0  0  0  0  0  0
   -3.5678   -3.1868    0.3198 H   0  0  0  0  0  0  0  0  0  0  0  0
   -2.3166   -3.0074   -1.5356 C   0  0  0  0  0  0  0  0  0  0  0  0
   -2.6445   -3.7604   -2.2585 H   0  0  0  0  0  0  0  0  0  0  0  0
   -0.5483   -2.0727   -3.0598 C   0  0  0  0  0  0  0  0  0  0  0  0
   -1.2268   -2.2652   -3.9121 H   0  0  0  0  0  0  0  0  0  0  0  0
    0.2587   -2.8349   -3.0622 H   0  0  0  0  0  0  0  0  0  0  0  0
   -0.0939   -1.0707   -3.1585 H   0  0  0  0  0  0  0  0  0  0  0  0
   -2.1867   -0.9199    1.4290 C   0  0  1  0  0  0  0  0  0  0  0  0
   -3.0083   -1.4159    1.9806 H   0  0  0  0  0  0  0  0  0  0  0  0
   -0.9369   -0.9876    2.2805 C   0  0  2  0  0  3  0  0  0  0  0  0
   -0.9847   -1.4546    3.6037 C   0  0  0  0  0  0  0  0  0  0  0  0
   -1.9466   -1.7790    4.0271 H   0  0  0  0  0  0  0  0  0  0  0  0
    0.1887   -1.5091    4.3668 C   0  0  0  0  0  0  0  0  0  0  0  0
    0.1668   -1.8714    5.4049 H   0  0  0  0  0  0  0  0  0  0  0  0
    1.3906   -1.0997    3.7696 C   0  0  0  0  0  0  0  0  0  0  0  0
    2.3433   -1.1309    4.3171 H   0  0  0  0  0  0  0  0  0  0  0  0
    1.3661   -0.6420    2.4500 C   0  0  0  0  0  0  0  0  0  0  0  0
    2.2841   -0.3129    1.9406 H   0  0  0  0  0  0  0  0  0  0  0  0
   -2.6226    0.5504    1.0979 C   0  0  1  0  0  0  0  0  0  0  0  0
   -2.8634    0.9984    2.0868 H   0  0  0  0  0  0  0  0  0  0  0  0
   -1.4495    1.3533    0.5391 C   0  0  0  0  0  3  0  0  0  0  0  0
   -0.9730    1.9585    1.3280 H   0  0  0  0  0  0  0  0  0  0  0  0
   -1.1861    1.7877   -0.7851 C   0  0  0  0  0  3  0  0  0  0  0  0
   -0.5580    2.6967   -0.8412 H   0  0  0  0  0  0  0  0  0  0  0  0
   -2.1347    1.6676   -1.9585 C   0  0  0  0  0  0  0  0  0  0  0  0
   -2.5653    0.6505   -2.0063 H   0  0  0  0  0  0  0  0  0  0  0  0
   -1.5594    1.7852   -2.8995 H   0  0  0  0  0  0  0  0  0  0  0  0
   -3.2519    2.7405   -1.9178 C   0  0  0  0  0  0  0  0  0  0  0  0
   -2.8305    3.7021   -2.2820 H   0  0  0  0  0  0  0  0  0  0  0  0
   -4.0379    2.4614   -2.6532 H   0  0  0  0  0  0  0  0  0  0  0  0
   -3.8912    3.0041   -0.5469 C   0  0  0  0  0  0  0  0  0  0  0  0
   -4.5952    3.8561   -0.6547 H   0  0  0  0  0  0  0  0  0  0  0  0
   -3.1104    3.3626    0.1570 H   0  0  0  0  0  0  0  0  0  0  0  0
   -4.6674    1.8449    0.0948 C   0  0  0  0  0  0  0  0  0  0  0  0
   -5.5728    1.6357   -0.5158 H   0  0  0  0  0  0  0  0  0  0  0  0
   -5.0486    2.1909    1.0805 H   0  0  0  0  0  0  0  0  0  0  0  0
   -3.9384    0.5057    0.2940 C   0  0  0  0  0  0  0  0  0  0  0  0
   -3.7658    0.0161   -0.6830 H   0  0  0  0  0  0  0  0  0  0  0  0
   -4.6340   -0.1729    0.8356 H   0  0  0  0  0  0  0  0  0  0  0  0
  1 13  1  0  0  0  0
  2  7  1  0  0  0  0
  2  4  1  0  0  0  0
  3 15  1  0  0  0  0
  3 22  1  0  0  0  0
  4  1  1  0  0  0  0
  5  1  1  0  0  0  0
  5  6  1  0  0  0  0
  7  5  2  0  0  0  0
  8  7  1  0  0  0  0
  9  2  1  0  0  0  0
 10  9  1  0  0  0  0
 11  9  1  0  0  0  0
 12  9  1  0  0  0  0
 13 14  1  1  0  0  0
 15 13  1  1  0  0  0
 15 16  1  0  0  0  0
 16 17  1  0  0  0  0
 16 18  2  0  0  0  0
 18 19  1  0  0  0  0
 20 21  1  0  0  0  0
 20 18  1  0  0  0  0
 22 20  2  0  0  0  0
 23 22  1  0  0  0  0
 24 13  1  0  0  0  0
 24 25  1  1  0  0  0
 26 24  1  0  0  0  0
 26 27  1  0  0  0  0
 28 26  1  0  0  0  0
 29 28  1  0  0  0  0
 30 33  1  0  0  0  0
 30 28  1  0  0  0  0
 31 30  1  0  0  0  0
 32 30  1  0  0  0  0
 33 36  1  0  0  0  0
 34 33  1  0  0  0  0
 35 33  1  0  0  0  0
 36 39  1  0  0  0  0
 36 38  1  0  0  0  0
 37 36  1  0  0  0  0
 39 42  1  0  0  0  0
 39 41  1  0  0  0  0
 40 39  1  0  0  0  0
 42 44  1  0  0  0  0
 42 24  1  0  0  0  0
 43 42  1  0  0  0  0
M  END
