2,27,37
 OpenBabel05122313063D

 61 65  0  0  1  0  0  0  0  0999 V2000
    3.0229   -0.1659    0.4609 N   0  0  0  0  0  0  0  0  0  0  0  0
    1.8196    0.3716    0.1623 C   0  0  0  0  0  2  0  0  0  0  0  0
    2.0215    1.7603    0.1555 N   0  0  0  0  0  0  0  0  0  0  0  0
    3.3575    2.0834    0.4339 C   0  0  0  0  0  0  0  0  0  0  0  0
    4.0709    3.2853    0.5494 C   0  0  0  0  0  0  0  0  0  0  0  0
    3.6053    4.2683    0.4131 H   0  0  0  0  0  0  0  0  0  0  0  0
    5.4369    3.1906    0.8549 C   0  0  0  0  0  0  0  0  0  0  0  0
    6.0255    4.1143    0.9506 H   0  0  0  0  0  0  0  0  0  0  0  0
    6.0711    1.9439    1.0407 C   0  0  0  0  0  0  0  0  0  0  0  0
    7.1446    1.9145    1.2765 H   0  0  0  0  0  0  0  0  0  0  0  0
    5.3600    0.7415    0.9296 C   0  0  0  0  0  0  0  0  0  0  0  0
    5.8542   -0.2290    1.0711 H   0  0  0  0  0  0  0  0  0  0  0  0
    3.9958    0.8344    0.6238 C   0  0  0  0  0  0  0  0  0  0  0  0
    3.3441   -1.5927    0.5713 C   0  0  0  0  0  0  0  0  0  0  0  0
    2.4066   -2.1167    0.8322 H   0  0  0  0  0  0  0  0  0  0  0  0
    4.0490   -1.7004    1.4208 H   0  0  0  0  0  0  0  0  0  0  0  0
    3.9331   -2.1673   -0.7182 C   0  0  0  0  0  0  0  0  0  0  0  0
    4.8674   -1.6260   -0.9846 H   0  0  0  0  0  0  0  0  0  0  0  0
    3.2080   -1.9853   -1.5395 H   0  0  0  0  0  0  0  0  0  0  0  0
    4.2086   -3.6686   -0.5969 C   0  0  0  0  0  0  0  0  0  0  0  0
    3.2601   -4.1844   -0.3305 H   0  0  0  0  0  0  0  0  0  0  0  0
    4.9045   -3.8512    0.2522 H   0  0  0  0  0  0  0  0  0  0  0  0
    4.7838   -4.2713   -1.8784 C   0  0  0  0  0  0  0  0  0  0  0  0
    4.0885   -4.1369   -2.7323 H   0  0  0  0  0  0  0  0  0  0  0  0
    4.9698   -5.3574   -1.7658 H   0  0  0  0  0  0  0  0  0  0  0  0
    5.7467   -3.7939   -2.1546 H   0  0  0  0  0  0  0  0  0  0  0  0
   -0.2141    1.7529   -0.1366 N   0  0  0  0  0  2  0  0  0  0  0  0
    0.8847    2.5420   -0.0395 C   0  0  1  0  0  3  0  0  0  0  0  0
    0.7904    3.9357   -0.1342 C   0  0  0  0  0  0  0  0  0  0  0  0
    1.6758    4.5746   -0.0609 H   0  0  0  0  0  0  0  0  0  0  0  0
   -0.4840    4.4873   -0.3406 C   0  0  0  0  0  0  0  0  0  0  0  0
   -0.5918    5.5781   -0.4236 H   0  0  0  0  0  0  0  0  0  0  0  0
   -1.6225    3.6732   -0.4529 C   0  0  0  0  0  0  0  0  0  0  0  0
   -2.6109    4.1088   -0.6279 H   0  0  0  0  0  0  0  0  0  0  0  0
   -1.4417    2.2889   -0.3469 C   0  0  0  0  0  0  0  0  0  0  0  0
   -3.0164   -0.8236   -0.3840 N   0  0  0  0  0  0  0  0  0  0  0  0
   -1.9188   -0.0359   -0.3446 C   0  0  0  0  0  2  0  0  0  0  0  0
   -2.3989    1.2793   -0.4308 N   0  0  0  0  0  0  0  0  0  0  0  0
   -3.7972    1.3075   -0.5264 C   0  0  0  0  0  0  0  0  0  0  0  0
   -4.7488    2.3330   -0.6282 C   0  0  0  0  0  0  0  0  0  0  0  0
   -4.4772    3.3946   -0.6546 H   0  0  0  0  0  0  0  0  0  0  0  0
   -6.0964    1.9507   -0.6952 C   0  0  0  0  0  0  0  0  0  0  0  0
   -6.8675    2.7302   -0.7762 H   0  0  0  0  0  0  0  0  0  0  0  0
   -6.4835    0.5943   -0.6608 C   0  0  0  0  0  0  0  0  0  0  0  0
   -7.5507    0.3359   -0.7158 H   0  0  0  0  0  0  0  0  0  0  0  0
   -5.5352   -0.4314   -0.5562 C   0  0  0  0  0  0  0  0  0  0  0  0
   -5.8417   -1.4851   -0.5225 H   0  0  0  0  0  0  0  0  0  0  0  0
   -4.1873   -0.0534   -0.4899 C   0  0  0  0  0  0  0  0  0  0  0  0
   -3.0308   -2.2875   -0.2352 C   0  0  0  0  0  0  0  0  0  0  0  0
   -2.2220   -2.6874   -0.8734 H   0  0  0  0  0  0  0  0  0  0  0  0
   -3.9990   -2.6395   -0.6395 H   0  0  0  0  0  0  0  0  0  0  0  0
   -2.8342   -2.7331    1.2152 C   0  0  0  0  0  0  0  0  0  0  0  0
   -2.7943   -3.8436    1.2084 H   0  0  0  0  0  0  0  0  0  0  0  0
   -1.8262   -2.3996    1.5443 H   0  0  0  0  0  0  0  0  0  0  0  0
   -3.9056   -2.2537    2.1982 C   0  0  0  0  0  0  0  0  0  0  0  0
   -4.9057   -2.5986    1.8530 H   0  0  0  0  0  0  0  0  0  0  0  0
   -3.9507   -1.1418    2.1892 H   0  0  0  0  0  0  0  0  0  0  0  0
   -3.6565   -2.7400    3.6262 C   0  0  0  0  0  0  0  0  0  0  0  0
   -3.6450   -3.8481    3.6785 H   0  0  0  0  0  0  0  0  0  0  0  0
   -4.4404   -2.3805    4.3213 H   0  0  0  0  0  0  0  0  0  0  0  0
   -2.6784   -2.3811    4.0080 H   0  0  0  0  0  0  0  0  0  0  0  0
  1 14  1  0  0  0  0
  1 13  1  0  0  0  0
  2  1  1  0  0  0  0
  3  2  1  0  0  0  0
  3  4  1  0  0  0  0
  4  5  2  0  0  0  0
  4 13  1  0  0  0  0
  5  7  1  0  0  0  0
  6  5  1  0  0  0  0
  7  8  1  0  0  0  0
  7  9  2  0  0  0  0
  9 10  1  0  0  0  0
 11  9  1  0  0  0  0
 11 12  1  0  0  0  0
 13 11  2  0  0  0  0
 14 15  1  0  0  0  0
 14 16  1  0  0  0  0
 17 20  1  0  0  0  0
 17 14  1  0  0  0  0
 18 17  1  0  0  0  0
 19 17  1  0  0  0  0
 20 21  1  0  0  0  0
 20 22  1  0  0  0  0
 23 25  1  0  0  0  0
 23 20  1  0  0  0  0
 24 23  1  0  0  0  0
 26 23  1  0  0  0  0
 27 28  1  0  0  0  0
 28  3  1  1  0  0  0
 29 30  1  0  0  0  0
 29 28  1  0  0  0  0
 31 29  2  0  0  0  0
 32 31  1  0  0  0  0
 33 35  2  0  0  0  0
 33 31  1  0  0  0  0
 34 33  1  0  0  0  0
 35 27  1  0  0  0  0
 36 37  1  0  0  0  0
 36 49  1  0  0  0  0
 38 35  1  0  0  0  0
 38 37  1  0  0  0  0
 39 48  1  0  0  0  0
 39 38  1  0  0  0  0
 40 39  2  0  0  0  0
 41 40  1  0  0  0  0
 42 44  2  0  0  0  0
 42 40  1  0  0  0  0
 43 42  1  0  0  0  0
 44 46  1  0  0  0  0
 45 44  1  0  0  0  0
 46 47  1  0  0  0  0
 46 48  2  0  0  0  0
 48 36  1  0  0  0  0
 49 52  1  0  0  0  0
 50 49  1  0  0  0  0
 51 49  1  0  0  0  0
 52 54  1  0  0  0  0
 52 55  1  0  0  0  0
 53 52  1  0  0  0  0
 55 58  1  0  0  0  0
 56 55  1  0  0  0  0
 57 55  1  0  0  0  0
 58 59  1  0  0  0  0
 58 61  1  0  0  0  0
 58 60  1  0  0  0  0
M  END
