2,3,27
 OpenBabel05122313063D

 51 56  0  0  0  0  0  0  0  0999 V2000
    8.8240   -0.0082    0.0011 Br  0  0  0  0  0  0  0  0  0  0  0  0
   -0.1571    0.0230   -0.0009 N   0  0  0  0  0  2  0  0  0  0  0  0
   -1.8432   -2.0500    0.0142 C   0  0  0  0  0  3  0  0  0  0  0  0
   -2.6807   -3.1631    0.0228 C   0  0  0  0  0  0  0  0  0  0  0  0
   -3.7780   -3.0459    0.0227 H   0  0  0  0  0  0  0  0  0  0  0  0
   -2.2161   -4.5150    0.0324 C   0  0  0  0  0  0  0  0  0  0  0  0
   -3.1025   -5.6304    0.0412 C   0  0  0  0  0  0  0  0  0  0  0  0
   -4.1884   -5.4434    0.0403 H   0  0  0  0  0  0  0  0  0  0  0  0
   -2.6148   -6.9303    0.0508 C   0  0  0  0  0  0  0  0  0  0  0  0
   -3.3142   -7.7804    0.0575 H   0  0  0  0  0  0  0  0  0  0  0  0
   -1.2142   -7.1734    0.0522 C   0  0  0  0  0  0  0  0  0  0  0  0
   -0.8394   -8.2079    0.0601 H   0  0  0  0  0  0  0  0  0  0  0  0
   -0.3243   -6.1090    0.0438 C   0  0  0  0  0  0  0  0  0  0  0  0
    0.7626   -6.2888    0.0451 H   0  0  0  0  0  0  0  0  0  0  0  0
   -0.7967   -4.7640    0.0336 C   0  0  0  0  0  0  0  0  0  0  0  0
    0.0771   -3.6445    0.0244 C   0  0  0  0  0  0  0  0  0  0  0  0
    1.1616   -3.8388    0.0249 H   0  0  0  0  0  0  0  0  0  0  0  0
   -0.4140   -2.3408    0.0151 C   0  0  0  0  0  0  0  0  0  0  0  0
    0.4877   -1.1770    0.0041 C   0  0  0  0  0  0  0  0  0  0  0  0
    1.8916   -1.1938    0.0047 C   0  0  0  0  0  0  0  0  0  0  0  0
    2.4199   -2.1549    0.0421 H   0  0  0  0  0  0  0  0  0  0  0  0
    2.6194    0.0155   -0.0010 C   0  0  0  0  0  0  0  0  0  0  0  0
    1.9003    1.2287   -0.0068 C   0  0  0  0  0  0  0  0  0  0  0  0
    2.4323    2.1880   -0.0437 H   0  0  0  0  0  0  0  0  0  0  0  0
    0.4959    1.2220   -0.0061 C   0  0  0  0  0  0  0  0  0  0  0  0
   -0.4014    2.3831   -0.0168 C   0  0  0  0  0  0  0  0  0  0  0  0
   -1.8231    2.0813   -0.0149 C   0  0  0  0  0  2  0  0  0  0  0  0
   -2.7011    3.1591   -0.0229 C   0  0  0  0  0  0  0  0  0  0  0  0
   -3.7863    2.9674   -0.0216 H   0  0  0  0  0  0  0  0  0  0  0  0
   -2.2498    4.5148   -0.0332 C   0  0  0  0  0  0  0  0  0  0  0  0
   -3.1575    5.6138   -0.0414 C   0  0  0  0  0  0  0  0  0  0  0  0
   -4.2379    5.4009   -0.0396 H   0  0  0  0  0  0  0  0  0  0  0  0
   -2.6953    6.9229   -0.0516 C   0  0  0  0  0  0  0  0  0  0  0  0
   -3.4112    7.7592   -0.0579 H   0  0  0  0  0  0  0  0  0  0  0  0
   -1.2994    7.1941   -0.0541 C   0  0  0  0  0  0  0  0  0  0  0  0
   -0.9453    8.2360   -0.0625 H   0  0  0  0  0  0  0  0  0  0  0  0
   -0.3881    6.1483   -0.0462 C   0  0  0  0  0  0  0  0  0  0  0  0
    0.6950    6.3505   -0.0485 H   0  0  0  0  0  0  0  0  0  0  0  0
   -0.8330    4.7932   -0.0355 C   0  0  0  0  0  0  0  0  0  0  0  0
    0.0684    3.6957   -0.0268 C   0  0  0  0  0  0  0  0  0  0  0  0
    1.1492    3.9113   -0.0285 H   0  0  0  0  0  0  0  0  0  0  0  0
    4.1017    0.0099   -0.0007 C   0  0  0  0  0  0  0  0  0  0  0  0
    4.8257   -1.0046   -0.6670 C   0  0  0  0  0  0  0  0  0  0  0  0
    4.2846   -1.7872   -1.2194 H   0  0  0  0  0  0  0  0  0  0  0  0
    6.2254   -1.0156   -0.6739 C   0  0  0  0  0  0  0  0  0  0  0  0
    6.7756   -1.8032   -1.2075 H   0  0  0  0  0  0  0  0  0  0  0  0
    6.9241   -0.0008    0.0003 C   0  0  0  0  0  0  0  0  0  0  0  0
    6.2325    1.0193    0.6738 C   0  0  0  0  0  0  0  0  0  0  0  0
    6.7882    1.8030    1.2074 H   0  0  0  0  0  0  0  0  0  0  0  0
    4.8328    1.0189    0.6659 C   0  0  0  0  0  0  0  0  0  0  0  0
    4.2972    1.8059    1.2173 H   0  0  0  0  0  0  0  0  0  0  0  0
  2 19  1  0  0  0  0
  3 18  2  0  0  0  0
  3  4  1  0  0  0  0
  4  6  2  0  0  0  0
  5  4  1  0  0  0  0
  6 15  1  0  0  0  0
  6  7  1  0  0  0  0
  7  9  2  0  0  0  0
  8  7  1  0  0  0  0
  9 11  1  0  0  0  0
  9 10  1  0  0  0  0
 11 12  1  0  0  0  0
 13 14  1  0  0  0  0
 13 11  2  0  0  0  0
 15 13  1  0  0  0  0
 16 17  1  0  0  0  0
 16 15  2  0  0  0  0
 18 16  1  0  0  0  0
 19 20  2  0  0  0  0
 19 18  1  0  0  0  0
 20 21  1  0  0  0  0
 22 42  1  0  0  0  0
 22 20  1  0  0  0  0
 23 25  1  0  0  0  0
 23 22  2  0  0  0  0
 24 23  1  0  0  0  0
 25  2  1  0  0  0  0
 26 27  1  0  0  0  0
 26 25  2  0  0  0  0
 28 29  1  0  0  0  0
 28 27  1  0  0  0  0
 30 28  2  0  0  0  0
 31 32  1  0  0  0  0
 31 30  1  0  0  0  0
 33 31  2  0  0  0  0
 34 33  1  0  0  0  0
 35 33  1  0  0  0  0
 35 37  2  0  0  0  0
 36 35  1  0  0  0  0
 37 39  1  0  0  0  0
 38 37  1  0  0  0  0
 39 30  1  0  0  0  0
 39 40  2  0  0  0  0
 40 26  1  0  0  0  0
 41 40  1  0  0  0  0
 42 50  1  0  0  0  0
 43 42  2  0  0  0  0
 44 43  1  0  0  0  0
 45 43  1  0  0  0  0
 45 47  2  0  0  0  0
 46 45  1  0  0  0  0
 47  1  1  0  0  0  0
 47 48  1  0  0  0  0
 48 49  1  0  0  0  0
 50 48  2  0  0  0  0
 50 51  1  0  0  0  0
M  END
