6,8,13
 OpenBabel05122313063D

 70 71  0  0  1  0  0  0  0  0999 V2000
   -1.0726    3.6851    0.9384 O   0  0  0  0  0  0  0  0  0  0  0  0
   -2.4534    2.9206   -0.7043 O   0  0  0  0  0  0  0  0  0  0  0  0
   -2.9487    1.6455    2.1551 O   0  0  0  0  0  0  0  0  0  0  0  0
   -2.3952   -0.4517    2.8270 O   0  0  0  0  0  0  0  0  0  0  0  0
   -0.2038   -1.0919   -2.6462 O   0  0  0  0  0  0  0  0  0  0  0  0
    1.7166    0.2526    0.4897 N   0  0  0  0  0  2  0  0  0  0  0  0
   -0.4967   -1.4001   -0.4048 N   0  0  0  0  0  0  0  0  0  0  0  0
   -0.7807    1.4731    0.1923 C   0  0  0  0  0  3  0  0  0  0  0  0
   -1.5545    2.7382    0.0993 C   0  0  0  0  0  0  0  0  0  0  0  0
   -1.8036    4.9172    0.9456 C   0  0  0  0  0  0  0  0  0  0  0  0
    3.1378    0.5455    0.8230 C   0  0  1  0  0  0  0  0  0  0  0  0
    3.1715    1.4724    2.0441 C   0  0  0  0  0  0  0  0  0  0  0  0
   -0.0774   -0.6817   -1.4971 C   0  0  0  0  0  3  0  0  0  0  0  0
   -1.1431    0.4906    1.0578 C   0  0  0  0  0  0  0  0  0  0  0  0
   -2.2374    0.6596    2.0397 C   0  0  0  0  0  0  0  0  0  0  0  0
   -3.4826   -0.3864    3.7539 C   0  0  0  0  0  0  0  0  0  0  0  0
    1.0517   -0.5442    1.2489 C   0  0  0  0  0  3  0  0  0  0  0  0
   -0.3915   -0.8274    0.9359 C   0  0  2  0  0  0  0  0  0  0  0  0
    3.9818   -0.7421    0.9751 C   0  0  0  0  0  0  0  0  0  0  0  0
   -0.7535   -3.7944    0.1706 C   0  0  0  0  0  0  0  0  0  0  0  0
   -1.3342   -2.6029   -0.5959 C   0  0  1  0  0  0  0  0  0  0  0  0
   -2.8140   -2.2846   -0.2725 C   0  0  0  0  0  0  0  0  0  0  0  0
   -3.7343   -3.5094   -0.4314 C   0  0  0  0  0  0  0  0  0  0  0  0
   -5.1937   -3.1725   -0.0926 C   0  0  0  0  0  0  0  0  0  0  0  0
   -5.7177   -1.9909   -0.9172 C   0  0  0  0  0  0  0  0  0  0  0  0
   -4.8013   -0.7709   -0.7743 C   0  0  0  0  0  0  0  0  0  0  0  0
   -3.3492   -1.1150   -1.1219 C   0  0  0  0  0  0  0  0  0  0  0  0
    5.4652   -0.4188    1.2369 C   0  0  0  0  0  0  0  0  0  0  0  0
    6.3138   -1.6896    1.3824 C   0  0  0  0  0  0  0  0  0  0  0  0
    6.1656   -2.6194    0.1730 C   0  0  0  0  0  0  0  0  0  0  0  0
    4.6914   -2.9469   -0.0895 C   0  0  0  0  0  0  0  0  0  0  0  0
    3.8548   -1.6721   -0.2471 C   0  0  0  0  0  0  0  0  0  0  0  0
   -1.2230    5.6163    1.5735 H   0  0  0  0  0  0  0  0  0  0  0  0
   -2.8114    4.7553    1.3788 H   0  0  0  0  0  0  0  0  0  0  0  0
   -1.9193    5.3173   -0.0815 H   0  0  0  0  0  0  0  0  0  0  0  0
    3.5402    1.1026   -0.0468 H   0  0  0  0  0  0  0  0  0  0  0  0
    2.4550    2.3070    1.9183 H   0  0  0  0  0  0  0  0  0  0  0  0
    4.1787    1.9083    2.1831 H   0  0  0  0  0  0  0  0  0  0  0  0
    2.9003    0.9234    2.9693 H   0  0  0  0  0  0  0  0  0  0  0  0
   -3.3889    0.4995    4.4134 H   0  0  0  0  0  0  0  0  0  0  0  0
   -3.4405   -1.3188    4.3449 H   0  0  0  0  0  0  0  0  0  0  0  0
   -4.4509   -0.3153    3.2170 H   0  0  0  0  0  0  0  0  0  0  0  0
    1.5214   -1.0096    2.1365 H   0  0  0  0  0  0  0  0  0  0  0  0
   -0.7857   -1.5596    1.6579 H   0  0  0  0  0  0  0  0  0  0  0  0
    3.6080   -1.2948    1.8700 H   0  0  0  0  0  0  0  0  0  0  0  0
    0.3315   -3.8883   -0.0345 H   0  0  0  0  0  0  0  0  0  0  0  0
   -1.2377   -4.7401   -0.1394 H   0  0  0  0  0  0  0  0  0  0  0  0
   -0.8947   -3.6989    1.2683 H   0  0  0  0  0  0  0  0  0  0  0  0
   -1.2485   -2.8025   -1.6847 H   0  0  0  0  0  0  0  0  0  0  0  0
   -2.8673   -1.9785    0.7994 H   0  0  0  0  0  0  0  0  0  0  0  0
   -3.6696   -3.8718   -1.4832 H   0  0  0  0  0  0  0  0  0  0  0  0
   -3.3899   -4.3454    0.2115 H   0  0  0  0  0  0  0  0  0  0  0  0
   -5.8342   -4.0678   -0.2391 H   0  0  0  0  0  0  0  0  0  0  0  0
   -5.2592   -2.9169    0.9899 H   0  0  0  0  0  0  0  0  0  0  0  0
   -6.7577   -1.7411   -0.6187 H   0  0  0  0  0  0  0  0  0  0  0  0
   -5.7624   -2.2878   -1.9894 H   0  0  0  0  0  0  0  0  0  0  0  0
   -5.1533    0.0657   -1.4122 H   0  0  0  0  0  0  0  0  0  0  0  0
   -4.8444   -0.3927    0.2728 H   0  0  0  0  0  0  0  0  0  0  0  0
   -3.2744   -1.3939   -2.1965 H   0  0  0  0  0  0  0  0  0  0  0  0
   -2.7180   -0.2142   -0.9951 H   0  0  0  0  0  0  0  0  0  0  0  0
    5.8505    0.1894    0.3865 H   0  0  0  0  0  0  0  0  0  0  0  0
    5.5739    0.2069    2.1459 H   0  0  0  0  0  0  0  0  0  0  0  0
    5.9957   -2.2321    2.3013 H   0  0  0  0  0  0  0  0  0  0  0  0
    7.3781   -1.4154    1.5378 H   0  0  0  0  0  0  0  0  0  0  0  0
    6.7532   -3.5489    0.3240 H   0  0  0  0  0  0  0  0  0  0  0  0
    6.5927   -2.1209   -0.7262 H   0  0  0  0  0  0  0  0  0  0  0  0
    4.5862   -3.5815   -0.9937 H   0  0  0  0  0  0  0  0  0  0  0  0
    4.2912   -3.5461    0.7599 H   0  0  0  0  0  0  0  0  0  0  0  0
    2.7921   -1.9315   -0.4323 H   0  0  0  0  0  0  0  0  0  0  0  0
    4.1972   -1.1195   -1.1496 H   0  0  0  0  0  0  0  0  0  0  0  0
  1 10  1  0  0  0  0
  2  9  2  0  0  0  0
  4 16  1  0  0  0  0
  5 13  2  0  0  0  0
  6 11  1  0  0  0  0
  6 17  1  0  0  0  0
  7 18  1  0  0  0  0
  8 14  2  0  0  0  0
  9  8  1  0  0  0  0
  9  1  1  0  0  0  0
 10 34  1  0  0  0  0
 10 33  1  0  0  0  0
 11 36  1  6  0  0  0
 11 19  1  0  0  0  0
 11 12  1  0  0  0  0
 12 38  1  0  0  0  0
 12 39  1  0  0  0  0
 13  7  1  0  0  0  0
 14 15  1  0  0  0  0
 15  3  2  0  0  0  0
 15  4  1  0  0  0  0
 16 41  1  0  0  0  0
 16 40  1  0  0  0  0
 17 43  1  0  0  0  0
 18 14  1  0  0  0  0
 18 17  1  0  0  0  0
 18 44  1  1  0  0  0
 19 28  1  0  0  0  0
 19 45  1  0  0  0  0
 20 48  1  0  0  0  0
 21 49  1  6  0  0  0
 21  7  1  0  0  0  0
 21 22  1  0  0  0  0
 21 20  1  0  0  0  0
 22 50  1  0  0  0  0
 23 22  1  0  0  0  0
 23 24  1  0  0  0  0
 23 52  1  0  0  0  0
 24 54  1  0  0  0  0
 25 26  1  0  0  0  0
 25 55  1  0  0  0  0
 25 24  1  0  0  0  0
 26 58  1  0  0  0  0
 27 60  1  0  0  0  0
 27 26  1  0  0  0  0
 27 22  1  0  0  0  0
 28 29  1  0  0  0  0
 28 62  1  0  0  0  0
 29 64  1  0  0  0  0
 29 63  1  0  0  0  0
 30 65  1  0  0  0  0
 30 29  1  0  0  0  0
 31 30  1  0  0  0  0
 31 68  1  0  0  0  0
 32 31  1  0  0  0  0
 32 19  1  0  0  0  0
 35 10  1  0  0  0  0
 37 12  1  0  0  0  0
 42 16  1  0  0  0  0
 46 20  1  0  0  0  0
 47 20  1  0  0  0  0
 51 23  1  0  0  0  0
 53 24  1  0  0  0  0
 56 25  1  0  0  0  0
 57 26  1  0  0  0  0
 59 27  1  0  0  0  0
 61 28  1  0  0  0  0
 66 30  1  0  0  0  0
 67 31  1  0  0  0  0
 69 32  1  0  0  0  0
 70 32  1  0  0  0  0
M  END
