1,19,34
 OpenBabel05122313063D

 48 51  0  0  0  0  0  0  0  0999 V2000
    0.0091    2.2087   -0.1704 N   0  0  0  0  0  0  0  0  0  0  0  0
    0.1968    2.5341   -1.1297 H   0  0  0  0  0  0  0  0  0  0  0  0
   -2.8025    0.7643   -0.2872 N   0  0  0  0  0  0  0  0  0  0  0  0
   -2.6638   -1.3637    0.1758 N   0  0  0  0  0  0  0  0  0  0  0  0
    2.8083    0.8121    0.0628 N   0  0  0  0  0  0  0  0  0  0  0  0
    2.6823   -1.3500   -0.2061 N   0  0  0  0  0  0  0  0  0  0  0  0
   -2.4410    2.1478   -0.5905 C   0  0  0  0  0  0  0  0  0  0  0  0
   -3.3418    2.7645   -0.4132 H   0  0  0  0  0  0  0  0  0  0  0  0
   -2.1995    2.2443   -1.6722 H   0  0  0  0  0  0  0  0  0  0  0  0
   -1.2997    2.7070    0.2602 C   0  0  0  0  0  0  0  0  0  0  0  0
   -1.3528    3.8223    0.2286 H   0  0  0  0  0  0  0  0  0  0  0  0
   -1.4553    2.4123    1.3193 H   0  0  0  0  0  0  0  0  0  0  0  0
    1.1198    2.5990    0.7022 C   0  0  0  0  0  0  0  0  0  0  0  0
    0.9825    2.1060    1.6887 H   0  0  0  0  0  0  0  0  0  0  0  0
    1.1314    3.6998    0.8947 H   0  0  0  0  0  0  0  0  0  0  0  0
    2.4849    2.2372    0.1266 C   0  0  0  0  0  0  0  0  0  0  0  0
    2.5983    2.6804   -0.8892 H   0  0  0  0  0  0  0  0  0  0  0  0
    3.2541    2.7173    0.7625 H   0  0  0  0  0  0  0  0  0  0  0  0
   -1.9056   -0.2601   -0.1025 C   0  0  0  0  0  2  0  0  0  0  0  0
   -4.0249   -1.0650    0.1529 C   0  0  0  0  0  0  0  0  0  0  0  0
   -4.1198    0.3141   -0.1507 C   0  0  0  0  0  0  0  0  0  0  0  0
   -5.3656    0.9516   -0.2562 C   0  0  0  0  0  0  0  0  0  0  0  0
   -5.4586    2.0189   -0.5018 H   0  0  0  0  0  0  0  0  0  0  0  0
   -6.5044    0.1630   -0.0416 C   0  0  0  0  0  0  0  0  0  0  0  0
   -7.4984    0.6271   -0.1167 H   0  0  0  0  0  0  0  0  0  0  0  0
   -6.4069   -1.2140    0.2647 C   0  0  0  0  0  0  0  0  0  0  0  0
   -7.3267   -1.7952    0.4235 H   0  0  0  0  0  0  0  0  0  0  0  0
   -5.1648   -1.8543    0.3673 C   0  0  0  0  0  0  0  0  0  0  0  0
   -5.0906   -2.9250    0.6025 H   0  0  0  0  0  0  0  0  0  0  0  0
   -2.1222   -2.6784    0.4665 C   0  0  0  0  0  0  0  0  0  0  0  0
   -1.0215   -2.5836    0.4996 H   0  0  0  0  0  0  0  0  0  0  0  0
   -2.4138   -3.4068   -0.3167 H   0  0  0  0  0  0  0  0  0  0  0  0
   -2.4881   -3.0381    1.4486 H   0  0  0  0  0  0  0  0  0  0  0  0
    1.9177   -0.2192   -0.1173 C   0  0  0  0  0  2  0  0  0  0  0  0
    4.0402   -1.0587   -0.0912 C   0  0  0  0  0  0  0  0  0  0  0  0
    4.1263    0.3434    0.0753 C   0  0  0  0  0  0  0  0  0  0  0  0
    5.3658    0.9878    0.2092 C   0  0  0  0  0  0  0  0  0  0  0  0
    5.4500    2.0772    0.3253 H   0  0  0  0  0  0  0  0  0  0  0  0
    6.5091    0.1767    0.1821 C   0  0  0  0  0  0  0  0  0  0  0  0
    7.4993    0.6437    0.2850 H   0  0  0  0  0  0  0  0  0  0  0  0
    6.4207   -1.2254    0.0226 C   0  0  0  0  0  0  0  0  0  0  0  0
    7.3435   -1.8230    0.0072 H   0  0  0  0  0  0  0  0  0  0  0  0
    5.1843   -1.8699   -0.1183 C   0  0  0  0  0  0  0  0  0  0  0  0
    5.1179   -2.9595   -0.2434 H   0  0  0  0  0  0  0  0  0  0  0  0
    2.1472   -2.6842   -0.4065 C   0  0  0  0  0  0  0  0  0  0  0  0
    2.3248   -3.3198    0.4844 H   0  0  0  0  0  0  0  0  0  0  0  0
    2.6186   -3.1595   -1.2894 H   0  0  0  0  0  0  0  0  0  0  0  0
    1.0605   -2.5810   -0.5828 H   0  0  0  0  0  0  0  0  0  0  0  0
  1 10  1  0  0  0  0
  1 13  1  0  0  0  0
  2  1  1  0  0  0  0
  3 21  1  0  0  0  0
  3 19  1  0  0  0  0
  4 30  1  0  0  0  0
  5 36  1  0  0  0  0
  5 16  1  0  0  0  0
  6 34  1  0  0  0  0
  6 35  1  0  0  0  0
  7  8  1  0  0  0  0
  7  3  1  0  0  0  0
  7 10  1  0  0  0  0
  9  7  1  0  0  0  0
 10 12  1  0  0  0  0
 11 10  1  0  0  0  0
 13 15  1  0  0  0  0
 13 14  1  0  0  0  0
 16 13  1  0  0  0  0
 16 18  1  0  0  0  0
 17 16  1  0  0  0  0
 19  4  1  0  0  0  0
 20  4  1  0  0  0  0
 20 28  1  0  0  0  0
 21 20  2  0  0  0  0
 22 21  1  0  0  0  0
 22 24  2  0  0  0  0
 23 22  1  0  0  0  0
 24 26  1  0  0  0  0
 25 24  1  0  0  0  0
 26 28  2  0  0  0  0
 26 27  1  0  0  0  0
 28 29  1  0  0  0  0
 30 31  1  0  0  0  0
 30 33  1  0  0  0  0
 32 30  1  0  0  0  0
 34  5  1  0  0  0  0
 35 36  1  0  0  0  0
 36 37  2  0  0  0  0
 37 38  1  0  0  0  0
 39 37  1  0  0  0  0
 39 40  1  0  0  0  0
 41 39  2  0  0  0  0
 42 41  1  0  0  0  0
 43 35  2  0  0  0  0
 43 41  1  0  0  0  0
 44 43  1  0  0  0  0
 45  6  1  0  0  0  0
 45 46  1  0  0  0  0
 47 45  1  0  0  0  0
 48 45  1  0  0  0  0
M  END
