1,16,31
 OpenBabel05122313063D

 61 64  0  0  0  0  0  0  0  0999 V2000
   -1.5551    0.8394    0.5847 N   0  0  0  0  0  2  0  0  0  0  0  0
   -2.1343   -1.8968    1.1367 N   0  0  0  0  0  0  0  0  0  0  0  0
   -1.3354   -2.8638   -0.6364 N   0  0  0  0  0  0  0  0  0  0  0  0
    0.3837    2.6534   -0.4491 N   0  0  0  0  0  0  0  0  0  0  0  0
    2.2172    2.1089    0.5763 N   0  0  0  0  0  0  0  0  0  0  0  0
   -2.3062    0.4911    1.6910 C   0  0  0  0  0  0  0  0  0  0  0  0
   -2.4803   -0.8759    2.0715 C   0  0  0  0  0  0  0  0  0  0  0  0
   -3.1092   -1.2208    3.2778 C   0  0  0  0  0  0  0  0  0  0  0  0
   -3.1839   -2.2823    3.5578 H   0  0  0  0  0  0  0  0  0  0  0  0
   -3.6463   -0.2304    4.1101 C   0  0  0  0  0  0  0  0  0  0  0  0
   -4.1319   -0.5087    5.0562 H   0  0  0  0  0  0  0  0  0  0  0  0
   -3.5531    1.1175    3.7173 C   0  0  0  0  0  0  0  0  0  0  0  0
   -3.9761    1.9079    4.3562 H   0  0  0  0  0  0  0  0  0  0  0  0
   -2.8930    1.4701    2.5378 C   0  0  0  0  0  0  0  0  0  0  0  0
   -2.7870    2.5268    2.2515 H   0  0  0  0  0  0  0  0  0  0  0  0
   -1.1133   -1.8194    0.2181 C   0  0  0  0  0  2  0  0  0  0  0  0
   -2.9555   -2.9945    0.8711 C   0  0  0  0  0  0  0  0  0  0  0  0
   -3.8352   -3.2244    1.4766 H   0  0  0  0  0  0  0  0  0  0  0  0
   -2.4506   -3.5959   -0.2480 C   0  0  0  0  0  0  0  0  0  0  0  0
   -2.7913   -4.4749   -0.8029 H   0  0  0  0  0  0  0  0  0  0  0  0
   -1.9321    1.8223   -0.3036 C   0  0  0  0  0  0  0  0  0  0  0  0
   -3.2871    2.0162   -0.6914 C   0  0  0  0  0  0  0  0  0  0  0  0
   -4.0560    1.4046   -0.1969 H   0  0  0  0  0  0  0  0  0  0  0  0
   -3.6397    2.9202   -1.6957 C   0  0  0  0  0  0  0  0  0  0  0  0
   -4.6976    3.0231   -1.9822 H   0  0  0  0  0  0  0  0  0  0  0  0
   -2.6525    3.6656   -2.3668 C   0  0  0  0  0  0  0  0  0  0  0  0
   -2.9211    4.3505   -3.1836 H   0  0  0  0  0  0  0  0  0  0  0  0
   -1.3133    3.5233   -1.9801 C   0  0  0  0  0  0  0  0  0  0  0  0
   -0.5271    4.1035   -2.4858 H   0  0  0  0  0  0  0  0  0  0  0  0
   -0.9548    2.6469   -0.9436 C   0  0  0  0  0  0  0  0  0  0  0  0
    1.0512    1.5782    0.1002 C   0  0  0  0  0  2  0  0  0  0  0  0
    1.1408    3.8188   -0.3310 C   0  0  0  0  0  0  0  0  0  0  0  0
    0.7720    4.7906   -0.6670 H   0  0  0  0  0  0  0  0  0  0  0  0
    2.2951    3.4703    0.3129 C   0  0  0  0  0  0  0  0  0  0  0  0
    3.1519    4.0762    0.6214 H   0  0  0  0  0  0  0  0  0  0  0  0
   -0.6839   -3.0398   -1.9362 C   0  0  0  0  0  0  0  0  0  0  0  0
   -0.5919   -4.1288   -2.1215 H   0  0  0  0  0  0  0  0  0  0  0  0
    0.3403   -2.6295   -1.8394 H   0  0  0  0  0  0  0  0  0  0  0  0
   -1.4520   -2.3518   -3.0732 C   0  0  0  0  0  0  0  0  0  0  0  0
   -0.8852   -2.5483   -4.0098 H   0  0  0  0  0  0  0  0  0  0  0  0
   -2.4438   -2.8404   -3.2090 H   0  0  0  0  0  0  0  0  0  0  0  0
   -1.6403   -0.8424   -2.8882 C   0  0  0  0  0  0  0  0  0  0  0  0
   -0.6545   -0.3761   -2.6665 H   0  0  0  0  0  0  0  0  0  0  0  0
   -2.2552   -0.6530   -1.9829 H   0  0  0  0  0  0  0  0  0  0  0  0
   -2.2911   -0.1521   -4.0858 C   0  0  0  0  0  0  0  0  0  0  0  0
   -1.6764   -0.2606   -5.0041 H   0  0  0  0  0  0  0  0  0  0  0  0
   -2.4255    0.9311   -3.8918 H   0  0  0  0  0  0  0  0  0  0  0  0
   -3.2923   -0.5798   -4.3059 H   0  0  0  0  0  0  0  0  0  0  0  0
    3.2609    1.3821    1.2982 C   0  0  0  0  0  0  0  0  0  0  0  0
    2.8439    0.3863    1.5411 H   0  0  0  0  0  0  0  0  0  0  0  0
    3.4502    1.9201    2.2517 H   0  0  0  0  0  0  0  0  0  0  0  0
    4.5495    1.2287    0.4910 C   0  0  0  0  0  0  0  0  0  0  0  0
    4.2926    0.7402   -0.4731 H   0  0  0  0  0  0  0  0  0  0  0  0
    4.9725    2.2298    0.2490 H   0  0  0  0  0  0  0  0  0  0  0  0
    5.5895    0.3839    1.2301 C   0  0  0  0  0  0  0  0  0  0  0  0
    5.1401   -0.6096    1.4484 H   0  0  0  0  0  0  0  0  0  0  0  0
    5.8131    0.8465    2.2179 H   0  0  0  0  0  0  0  0  0  0  0  0
    6.8831    0.2010    0.4369 C   0  0  0  0  0  0  0  0  0  0  0  0
    6.6863   -0.3007   -0.5331 H   0  0  0  0  0  0  0  0  0  0  0  0
    7.6178   -0.4174    0.9905 H   0  0  0  0  0  0  0  0  0  0  0  0
    7.3658    1.1760    0.2143 H   0  0  0  0  0  0  0  0  0  0  0  0
  1  6  1  0  0  0  0
  2  7  1  0  0  0  0
  3 19  1  0  0  0  0
  3 16  1  0  0  0  0
  4 32  1  0  0  0  0
  4 31  1  0  0  0  0
  5 49  1  0  0  0  0
  6  7  2  0  0  0  0
  6 14  1  0  0  0  0
  7  8  1  0  0  0  0
  8  9  1  0  0  0  0
  8 10  2  0  0  0  0
 10 11  1  0  0  0  0
 12 10  1  0  0  0  0
 12 13  1  0  0  0  0
 14 12  2  0  0  0  0
 15 14  1  0  0  0  0
 16  2  1  0  0  0  0
 17  2  1  0  0  0  0
 17 18  1  0  0  0  0
 19 17  2  0  0  0  0
 20 19  1  0  0  0  0
 21  1  1  0  0  0  0
 22 21  1  0  0  0  0
 22 23  1  0  0  0  0
 24 22  2  0  0  0  0
 25 24  1  0  0  0  0
 26 28  2  0  0  0  0
 26 24  1  0  0  0  0
 27 26  1  0  0  0  0
 28 30  1  0  0  0  0
 29 28  1  0  0  0  0
 30  4  1  0  0  0  0
 30 21  2  0  0  0  0
 31  5  1  0  0  0  0
 32 34  2  0  0  0  0
 33 32  1  0  0  0  0
 34  5  1  0  0  0  0
 34 35  1  0  0  0  0
 36 38  1  0  0  0  0
 36  3  1  0  0  0  0
 37 36  1  0  0  0  0
 39 42  1  0  0  0  0
 39 36  1  0  0  0  0
 40 39  1  0  0  0  0
 41 39  1  0  0  0  0
 42 43  1  0  0  0  0
 42 44  1  0  0  0  0
 45 47  1  0  0  0  0
 45 42  1  0  0  0  0
 46 45  1  0  0  0  0
 48 45  1  0  0  0  0
 49 50  1  0  0  0  0
 49 51  1  0  0  0  0
 52 55  1  0  0  0  0
 52 49  1  0  0  0  0
 53 52  1  0  0  0  0
 54 52  1  0  0  0  0
 55 56  1  0  0  0  0
 55 57  1  0  0  0  0
 58 60  1  0  0  0  0
 58 55  1  0  0  0  0
 59 58  1  0  0  0  0
 61 58  1  0  0  0  0
M  END
