1,2,20
 OpenBabel05122313063D

 35 37  0  0  1  0  0  0  0  0999 V2000
   -1.4106    1.7677   -0.4886 N   0  0  0  0  0  2  0  0  0  0  0  0
   -2.0626   -0.8157   -0.6863 C   0  0  0  0  0  3  0  0  0  0  0  0
   -2.3950   -2.1738   -0.7648 C   0  0  0  0  0  0  0  0  0  0  0  0
   -1.6429   -2.9317   -0.4877 H   0  0  0  0  0  0  0  0  0  0  0  0
   -3.6667   -2.6124   -1.1940 C   0  0  0  0  0  0  0  0  0  0  0  0
   -4.6324   -1.6416   -1.5402 C   0  0  0  0  0  0  0  0  0  0  0  0
   -5.6326   -1.9641   -1.8701 H   0  0  0  0  0  0  0  0  0  0  0  0
   -4.3340   -0.2783   -1.4660 C   0  0  0  0  0  0  0  0  0  0  0  0
   -5.1064    0.4578   -1.7391 H   0  0  0  0  0  0  0  0  0  0  0  0
   -3.0578    0.1491   -1.0413 C   0  0  0  0  0  0  0  0  0  0  0  0
   -2.6764    1.5662   -0.9432 C   0  0  2  0  0  3  0  0  0  0  0  0
   -3.4530    2.6986   -1.2617 C   0  0  0  0  0  0  0  0  0  0  0  0
   -4.4796    2.5776   -1.6312 H   0  0  0  0  0  0  0  0  0  0  0  0
   -2.8893    3.9732   -1.1077 C   0  0  0  0  0  0  0  0  0  0  0  0
   -3.4867    4.8636   -1.3560 H   0  0  0  0  0  0  0  0  0  0  0  0
   -1.5733    4.1304   -0.6495 C   0  0  0  0  0  0  0  0  0  0  0  0
   -1.1309    5.1290   -0.5393 H   0  0  0  0  0  0  0  0  0  0  0  0
   -0.8180    2.9822   -0.3375 C   0  0  0  0  0  0  0  0  0  0  0  0
    0.5710    2.9151    0.1436 C   0  0  0  0  0  0  0  0  0  0  0  0
    1.1166    1.6103    0.3712 C   0  0  0  0  0  3  0  0  0  0  0  0
    2.4334    1.5146    0.8351 C   0  0  0  0  0  0  0  0  0  0  0  0
    2.8686    0.5200    1.0300 H   0  0  0  0  0  0  0  0  0  0  0  0
    3.2395    2.6546    1.0559 C   0  0  0  0  0  0  0  0  0  0  0  0
    2.6820    3.9282    0.8189 C   0  0  0  0  0  0  0  0  0  0  0  0
    3.2931    4.8283    0.9894 H   0  0  0  0  0  0  0  0  0  0  0  0
    1.3626    4.0594    0.3715 C   0  0  0  0  0  0  0  0  0  0  0  0
    0.9515    5.0661    0.1974 H   0  0  0  0  0  0  0  0  0  0  0  0
    4.6671    2.4990    1.5151 C   0  0  0  0  0  0  0  0  0  0  0  0
    5.1226    3.4707    1.7883 H   0  0  0  0  0  0  0  0  0  0  0  0
    5.2929    2.0468    0.7157 H   0  0  0  0  0  0  0  0  0  0  0  0
    4.7379    1.8254    2.3941 H   0  0  0  0  0  0  0  0  0  0  0  0
   -3.9797   -4.0825   -1.3095 C   0  0  0  0  0  0  0  0  0  0  0  0
   -5.0393   -4.2981   -1.0653 H   0  0  0  0  0  0  0  0  0  0  0  0
   -3.3379   -4.6898   -0.6411 H   0  0  0  0  0  0  0  0  0  0  0  0
   -3.8067   -4.4437   -2.3468 H   0  0  0  0  0  0  0  0  0  0  0  0
  1 18  1  0  0  0  0
  3  2  1  0  0  0  0
  3  4  1  0  0  0  0
  5  3  2  0  0  0  0
  6  8  2  0  0  0  0
  6  5  1  0  0  0  0
  7  6  1  0  0  0  0
  8 10  1  0  0  0  0
  9  8  1  0  0  0  0
 10  2  2  0  0  0  0
 11 10  1  6  0  0  0
 11  1  1  0  0  0  0
 12 14  2  0  0  0  0
 12 11  1  0  0  0  0
 13 12  1  0  0  0  0
 14 16  1  0  0  0  0
 15 14  1  0  0  0  0
 16 17  1  0  0  0  0
 16 18  2  0  0  0  0
 18 19  1  0  0  0  0
 19 20  2  0  0  0  0
 19 26  1  0  0  0  0
 20 21  1  0  0  0  0
 21 22  1  0  0  0  0
 21 23  2  0  0  0  0
 23 28  1  0  0  0  0
 24 25  1  0  0  0  0
 24 23  1  0  0  0  0
 26 24  2  0  0  0  0
 27 26  1  0  0  0  0
 28 29  1  0  0  0  0
 28 31  1  0  0  0  0
 30 28  1  0  0  0  0
 32  5  1  0  0  0  0
 32 33  1  0  0  0  0
 32 34  1  0  0  0  0
 35 32  1  0  0  0  0
M  END
