1,17,43
 OpenBabel05122313063D

 67 71  0  0  0  0  0  0  0  0999 V2000
   -0.0085   -2.5416   -0.0004 N   0  0  0  0  0  2  0  0  0  0  0  0
   -3.6622   -2.3494   -0.1653 N   0  0  0  0  0  0  0  0  0  0  0  0
   -4.2438   -1.1600   -0.1865 N   0  0  0  0  0  2  0  0  0  0  0  0
   -3.2326   -0.2809   -0.1442 N   0  0  0  0  0  0  0  0  0  0  0  0
    3.6462   -2.3715    0.1648 N   0  0  0  0  0  0  0  0  0  0  0  0
    4.2350   -1.1856    0.1871 N   0  0  0  0  0  2  0  0  0  0  0  0
    3.2291   -0.3003    0.1459 N   0  0  0  0  0  0  0  0  0  0  0  0
    1.1863   -3.2160    0.0620 C   0  0  0  0  0  0  0  0  0  0  0  0
    1.2018   -4.6214    0.0629 C   0  0  0  0  0  0  0  0  0  0  0  0
    2.1509   -5.1693    0.1135 H   0  0  0  0  0  0  0  0  0  0  0  0
   -0.0168   -5.3147   -0.0014 C   0  0  0  0  0  0  0  0  0  0  0  0
   -0.0200   -6.4139   -0.0018 H   0  0  0  0  0  0  0  0  0  0  0  0
   -1.2312   -4.6141   -0.0652 C   0  0  0  0  0  0  0  0  0  0  0  0
   -2.1836   -5.1563   -0.1162 H   0  0  0  0  0  0  0  0  0  0  0  0
   -1.2073   -3.2088   -0.0632 C   0  0  0  0  0  0  0  0  0  0  0  0
   -2.2952   -2.2438   -0.1170 C   0  0  0  0  0  0  0  0  0  0  0  0
   -1.9917   -0.8627   -0.1012 C   0  0  0  0  0  2  0  0  0  0  0  0
   -4.5013   -3.5400   -0.1950 C   0  0  0  0  0  0  0  0  0  0  0  0
   -5.5524   -3.2065   -0.2343 H   0  0  0  0  0  0  0  0  0  0  0  0
   -4.3341   -4.1415    0.7191 H   0  0  0  0  0  0  0  0  0  0  0  0
   -4.2679   -4.1432   -1.0931 H   0  0  0  0  0  0  0  0  0  0  0  0
   -3.5273    1.1320   -0.1227 C   0  0  0  0  0  0  0  0  0  0  0  0
   -3.9815    1.6956    1.0870 C   0  0  0  0  0  0  0  0  0  0  0  0
   -4.2347    3.0771    1.0911 C   0  0  0  0  0  0  0  0  0  0  0  0
   -4.5902    3.5451    2.0223 H   0  0  0  0  0  0  0  0  0  0  0  0
   -4.0418    3.8740   -0.0533 C   0  0  0  0  0  0  0  0  0  0  0  0
   -3.5819    3.2563   -1.2320 C   0  0  0  0  0  0  0  0  0  0  0  0
   -3.4259    3.8659   -2.1358 H   0  0  0  0  0  0  0  0  0  0  0  0
   -3.3079    1.8809   -1.2967 C   0  0  0  0  0  0  0  0  0  0  0  0
   -4.1638    0.8547    2.3233 C   0  0  0  0  0  0  0  0  0  0  0  0
   -4.4457    1.4817    3.1890 H   0  0  0  0  0  0  0  0  0  0  0  0
   -3.2275    0.3171    2.5840 H   0  0  0  0  0  0  0  0  0  0  0  0
   -4.9559    0.0899    2.1853 H   0  0  0  0  0  0  0  0  0  0  0  0
   -4.2893    5.3592   -0.0135 C   0  0  0  0  0  0  0  0  0  0  0  0
   -4.9466    5.6444    0.8300 H   0  0  0  0  0  0  0  0  0  0  0  0
   -4.7509    5.7202   -0.9537 H   0  0  0  0  0  0  0  0  0  0  0  0
   -3.3326    5.9104    0.1098 H   0  0  0  0  0  0  0  0  0  0  0  0
   -2.7649    1.2476   -2.5486 C   0  0  0  0  0  0  0  0  0  0  0  0
   -2.9131    1.9084   -3.4227 H   0  0  0  0  0  0  0  0  0  0  0  0
   -3.2442    0.2727   -2.7690 H   0  0  0  0  0  0  0  0  0  0  0  0
   -1.6741    1.0682   -2.4383 H   0  0  0  0  0  0  0  0  0  0  0  0
    2.2799   -2.2575    0.1167 C   0  0  0  0  0  0  0  0  0  0  0  0
    1.9848   -0.8746    0.1021 C   0  0  0  0  0  3  0  0  0  0  0  0
    4.4780   -3.5672    0.1935 C   0  0  0  0  0  0  0  0  0  0  0  0
    4.3071   -4.1670   -0.7209 H   0  0  0  0  0  0  0  0  0  0  0  0
    4.2412   -4.1694    1.0914 H   0  0  0  0  0  0  0  0  0  0  0  0
    5.5312   -3.2400    0.2328 H   0  0  0  0  0  0  0  0  0  0  0  0
    3.5333    1.1106    0.1254 C   0  0  0  0  0  0  0  0  0  0  0  0
    3.3189    1.8600    1.2978 C   0  0  0  0  0  0  0  0  0  0  0  0
    3.5997    3.2361    1.2319 C   0  0  0  0  0  0  0  0  0  0  0  0
    3.4439    3.8480    2.1340 H   0  0  0  0  0  0  0  0  0  0  0  0
    4.0631    3.8497    0.0549 C   0  0  0  0  0  0  0  0  0  0  0  0
    4.2459    3.0513   -1.0925 C   0  0  0  0  0  0  0  0  0  0  0  0
    4.5962    3.5182   -2.0266 H   0  0  0  0  0  0  0  0  0  0  0  0
    3.9864    1.6731   -1.0874 C   0  0  0  0  0  0  0  0  0  0  0  0
    2.7695    1.2333    2.5502 C   0  0  0  0  0  0  0  0  0  0  0  0
    2.9322    1.8893    3.4253 H   0  0  0  0  0  0  0  0  0  0  0  0
    3.2320    0.2496    2.7666 H   0  0  0  0  0  0  0  0  0  0  0  0
    1.6753    1.0737    2.4430 H   0  0  0  0  0  0  0  0  0  0  0  0
    4.3644    5.3248    0.0106 C   0  0  0  0  0  0  0  0  0  0  0  0
    3.8432    5.8148   -0.8368 H   0  0  0  0  0  0  0  0  0  0  0  0
    5.4504    5.5034   -0.1351 H   0  0  0  0  0  0  0  0  0  0  0  0
    4.0603    5.8351    0.9439 H   0  0  0  0  0  0  0  0  0  0  0  0
    4.1544    0.8305   -2.3247 C   0  0  0  0  0  0  0  0  0  0  0  0
    4.9355    0.0543   -2.1885 H   0  0  0  0  0  0  0  0  0  0  0  0
    4.4437    1.4539   -3.1905 H   0  0  0  0  0  0  0  0  0  0  0  0
    3.2099    0.3066   -2.5839 H   0  0  0  0  0  0  0  0  0  0  0  0
  1  8  1  0  0  0  0
  2 16  1  0  0  0  0
  3  2  1  0  0  0  0
  3  4  1  0  0  0  0
  4 22  1  0  0  0  0
  4 17  1  0  0  0  0
  5  6  1  0  0  0  0
  5 44  1  0  0  0  0
  7  6  1  0  0  0  0
  8  9  2  0  0  0  0
  8 42  1  0  0  0  0
  9 10  1  0  0  0  0
 11  9  1  0  0  0  0
 12 11  1  0  0  0  0
 13 15  1  0  0  0  0
 13 11  2  0  0  0  0
 14 13  1  0  0  0  0
 15  1  1  0  0  0  0
 16 17  1  0  0  0  0
 16 15  2  0  0  0  0
 18  2  1  0  0  0  0
 18 20  1  0  0  0  0
 19 18  1  0  0  0  0
 21 18  1  0  0  0  0
 22 23  1  0  0  0  0
 23 24  2  0  0  0  0
 23 30  1  0  0  0  0
 24 25  1  0  0  0  0
 26 34  1  0  0  0  0
 26 24  1  0  0  0  0
 27 26  2  0  0  0  0
 28 27  1  0  0  0  0
 29 27  1  0  0  0  0
 29 22  2  0  0  0  0
 30 32  1  0  0  0  0
 30 31  1  0  0  0  0
 33 30  1  0  0  0  0
 34 37  1  0  0  0  0
 34 35  1  0  0  0  0
 36 34  1  0  0  0  0
 38 41  1  0  0  0  0
 38 29  1  0  0  0  0
 39 38  1  0  0  0  0
 40 38  1  0  0  0  0
 42  5  1  0  0  0  0
 43 42  2  0  0  0  0
 43  7  1  0  0  0  0
 44 47  1  0  0  0  0
 44 46  1  0  0  0  0
 45 44  1  0  0  0  0
 48  7  1  0  0  0  0
 48 49  1  0  0  0  0
 49 56  1  0  0  0  0
 50 49  2  0  0  0  0
 50 51  1  0  0  0  0
 52 50  1  0  0  0  0
 53 55  1  0  0  0  0
 53 52  2  0  0  0  0
 54 53  1  0  0  0  0
 55 48  2  0  0  0  0
 56 58  1  0  0  0  0
 56 57  1  0  0  0  0
 59 56  1  0  0  0  0
 60 52  1  0  0  0  0
 60 63  1  0  0  0  0
 61 60  1  0  0  0  0
 62 60  1  0  0  0  0
 64 65  1  0  0  0  0
 64 55  1  0  0  0  0
 66 64  1  0  0  0  0
 67 64  1  0  0  0  0
M  END
