2,3,9
 OpenBabel05122313063D

 47 47  0  0  1  0  0  0  0  0999 V2000
    1.6102   -0.2437   -0.0785 P   0  0  0  0  0  4  0  0  0  0  0  0
    0.0446    0.0711    0.0271 N   0  0  0  0  0  1  0  0  0  0  0  0
   -2.7795   -0.6273   -1.5770 C   0  0  0  0  0  3  0  0  0  0  0  0
   -2.4877   -0.4081   -2.6117 H   0  0  0  0  0  0  0  0  0  0  0  0
   -3.8106    0.0373   -0.8407 C   0  0  0  0  0  0  0  0  0  0  0  0
   -4.4189    0.8714   -1.2087 H   0  0  0  0  0  0  0  0  0  0  0  0
   -3.8242   -0.4986    0.4681 C   0  0  0  0  0  0  0  0  0  0  0  0
   -4.4471   -0.1589    1.3033 H   0  0  0  0  0  0  0  0  0  0  0  0
   -2.8012   -1.4967    0.5468 C   0  0  0  0  0  3  0  0  0  0  0  0
   -2.5237   -2.0563    1.4477 H   0  0  0  0  0  0  0  0  0  0  0  0
   -2.1743   -1.6051   -0.7313 C   0  0  1  0  0  3  0  0  0  0  0  0
   -1.0806   -2.5615   -1.1437 C   0  0  0  0  0  0  0  0  0  0  0  0
   -1.5565   -3.3810   -1.7312 H   0  0  0  0  0  0  0  0  0  0  0  0
   -0.3977   -2.0362   -1.8401 H   0  0  0  0  0  0  0  0  0  0  0  0
   -0.3235   -3.1797   -0.0019 C   0  0  0  0  0  0  0  0  0  0  0  0
   -0.8976   -3.8781    0.6314 H   0  0  0  0  0  0  0  0  0  0  0  0
    0.9719   -2.9787    0.3206 C   0  0  0  0  0  0  0  0  0  0  0  0
    1.3699   -3.5139    1.1976 H   0  0  0  0  0  0  0  0  0  0  0  0
    1.9287   -2.0639   -0.3921 C   0  0  0  0  0  0  0  0  0  0  0  0
    1.8409   -2.1690   -1.4929 H   0  0  0  0  0  0  0  0  0  0  0  0
    2.9826   -2.2853   -0.1296 H   0  0  0  0  0  0  0  0  0  0  0  0
    2.4243    0.2080    1.5696 C   0  0  0  0  0  0  0  0  0  0  0  0
    3.9571    0.1480    1.5024 C   0  0  0  0  0  0  0  0  0  0  0  0
    4.3680    0.2965    2.5232 H   0  0  0  0  0  0  0  0  0  0  0  0
    4.3793    0.9462    0.8611 H   0  0  0  0  0  0  0  0  0  0  0  0
    4.3328   -0.8305    1.1390 H   0  0  0  0  0  0  0  0  0  0  0  0
    1.8898   -0.8121    2.5957 C   0  0  0  0  0  0  0  0  0  0  0  0
    2.2211   -0.4980    3.6077 H   0  0  0  0  0  0  0  0  0  0  0  0
    2.2780   -1.8342    2.4223 H   0  0  0  0  0  0  0  0  0  0  0  0
    0.7824   -0.8383    2.5930 H   0  0  0  0  0  0  0  0  0  0  0  0
    1.9410    1.6086    1.9922 C   0  0  0  0  0  0  0  0  0  0  0  0
    2.3364    1.8205    3.0079 H   0  0  0  0  0  0  0  0  0  0  0  0
    0.8354    1.6567    2.0380 H   0  0  0  0  0  0  0  0  0  0  0  0
    2.3020    2.4073    1.3198 H   0  0  0  0  0  0  0  0  0  0  0  0
    2.3153    0.6427   -1.5997 C   0  0  0  0  0  0  0  0  0  0  0  0
    2.3362    2.1594   -1.3405 C   0  0  0  0  0  0  0  0  0  0  0  0
    2.5778    2.6799   -2.2910 H   0  0  0  0  0  0  0  0  0  0  0  0
    3.1076    2.4490   -0.6010 H   0  0  0  0  0  0  0  0  0  0  0  0
    1.3460    2.5220   -0.9990 H   0  0  0  0  0  0  0  0  0  0  0  0
    1.3196    0.3616   -2.7442 C   0  0  0  0  0  0  0  0  0  0  0  0
    1.6929    0.8567   -3.6650 H   0  0  0  0  0  0  0  0  0  0  0  0
    0.3174    0.7685   -2.5091 H   0  0  0  0  0  0  0  0  0  0  0  0
    1.2227   -0.7199   -2.9713 H   0  0  0  0  0  0  0  0  0  0  0  0
    3.7133    0.1249   -1.9767 C   0  0  0  0  0  0  0  0  0  0  0  0
    4.0606    0.6627   -2.8839 H   0  0  0  0  0  0  0  0  0  0  0  0
    3.7126   -0.9560   -2.2213 H   0  0  0  0  0  0  0  0  0  0  0  0
    4.4633    0.3006   -1.1829 H   0  0  0  0  0  0  0  0  0  0  0  0
  1  2  1  0  0  0  0
  1 22  1  0  0  0  0
  3  5  1  0  0  0  0
  3 11  1  0  0  0  0
  4  3  1  0  0  0  0
  5  7  2  0  0  0  0
  6  5  1  0  0  0  0
  7  9  1  0  0  0  0
  7  8  1  0  0  0  0
  9 10  1  0  0  0  0
 11 12  1  6  0  0  0
 11  9  1  0  0  0  0
 12 15  1  0  0  0  0
 13 12  1  0  0  0  0
 14 12  1  0  0  0  0
 15 17  2  0  0  0  0
 15 16  1  0  0  0  0
 17 18  1  0  0  0  0
 19 21  1  0  0  0  0
 19  1  1  0  0  0  0
 19 17  1  0  0  0  0
 20 19  1  0  0  0  0
 22 31  1  0  0  0  0
 22 27  1  0  0  0  0
 23 22  1  0  0  0  0
 23 24  1  0  0  0  0
 25 23  1  0  0  0  0
 26 23  1  0  0  0  0
 27 28  1  0  0  0  0
 29 27  1  0  0  0  0
 30 27  1  0  0  0  0
 31 33  1  0  0  0  0
 31 32  1  0  0  0  0
 34 31  1  0  0  0  0
 35 36  1  0  0  0  0
 35  1  1  0  0  0  0
 36 39  1  0  0  0  0
 36 38  1  0  0  0  0
 37 36  1  0  0  0  0
 40 42  1  0  0  0  0
 40 35  1  0  0  0  0
 41 40  1  0  0  0  0
 43 40  1  0  0  0  0
 44 35  1  0  0  0  0
 44 47  1  0  0  0  0
 45 44  1  0  0  0  0
 46 44  1  0  0  0  0
M  END
