1,6,20
 OpenBabel05122313063D

 20 21  0  0  1  0  0  0  0  0999 V2000
    0.7262    2.0564   -0.1857 C   0  0  1  0  0  3  0  0  0  0  0  0
   -0.0100    1.9445   -1.4107 C   0  0  0  0  0  0  0  0  0  0  0  0
    0.4386    1.7630   -2.3956 H   0  0  0  0  0  0  0  0  0  0  0  0
   -1.3940    2.0326   -1.1125 C   0  0  0  0  0  0  0  0  0  0  0  0
   -2.2212    1.9666   -1.8295 H   0  0  0  0  0  0  0  0  0  0  0  0
   -1.5245    2.2200    0.2998 C   0  0  0  0  0  3  0  0  0  0  0  0
   -2.4686    2.3275    0.8483 H   0  0  0  0  0  0  0  0  0  0  0  0
   -0.2178    2.2567    0.8644 C   0  0  0  0  0  3  0  0  0  0  0  0
    0.0252    2.3521    1.9305 H   0  0  0  0  0  0  0  0  0  0  0  0
    2.2002    1.7803   -0.0330 C   0  0  0  0  0  0  0  0  0  0  0  0
    2.5547    2.1753    0.9432 H   0  0  0  0  0  0  0  0  0  0  0  0
    2.7768    2.3215   -0.8144 H   0  0  0  0  0  0  0  0  0  0  0  0
    2.4296    0.2906   -0.1335 C   0  0  0  0  0  0  0  0  0  0  0  0
    3.5741   -0.4978   -0.0871 C   0  0  0  0  0  3  0  0  0  0  0  0
    4.6042   -0.1415    0.0375 H   0  0  0  0  0  0  0  0  0  0  0  0
    3.1483   -1.8592   -0.2553 C   0  0  0  0  0  0  0  0  0  0  0  0
    3.7914   -2.7478   -0.2828 H   0  0  0  0  0  0  0  0  0  0  0  0
    1.7657   -1.8405   -0.3996 C   0  0  0  0  0  0  0  0  0  0  0  0
    1.0578   -2.6637   -0.5517 H   0  0  0  0  0  0  0  0  0  0  0  0
    1.3163   -0.5309   -0.3133 N   0  0  0  0  0  0  0  0  0  0  0  0
  1 10  1  1  0  0  0
  1  8  1  0  0  0  0
  2  4  2  0  0  0  0
  2  1  1  0  0  0  0
  3  2  1  0  0  0  0
  4  6  1  0  0  0  0
  5  4  1  0  0  0  0
  6  7  1  0  0  0  0
  6  8  1  0  0  0  0
  8  9  1  0  0  0  0
 10 11  1  0  0  0  0
 12 10  1  0  0  0  0
 13 14  1  0  0  0  0
 13 10  1  0  0  0  0
 14 15  1  0  0  0  0
 16 14  1  0  0  0  0
 17 16  1  0  0  0  0
 18 20  1  0  0  0  0
 18 16  2  0  0  0  0
 19 18  1  0  0  0  0
 20 13  2  0  0  0  0
M  END
