1,12,16
 OpenBabel05122313063D

 44 43  0  0  1  0  0  0  0  0999 V2000
   -2.3094   -1.4195   -1.5079 C   0  0  0  0  0  3  0  0  0  0  0  0
   -0.0751   -2.6821    1.6885 C   0  0  0  0  0  0  0  0  0  0  0  0
    0.0941   -2.4482    3.1913 C   0  0  0  0  0  0  0  0  0  0  0  0
   -0.6263   -4.0766    1.3694 C   0  0  0  0  0  0  0  0  0  0  0  0
   -4.6971   -1.7120   -0.8986 C   0  0  0  0  0  0  0  0  0  0  0  0
   -5.6530   -0.5190   -1.0128 C   0  0  0  0  0  0  0  0  0  0  0  0
   -5.1878   -2.7776    0.0865 C   0  0  0  0  0  0  0  0  0  0  0  0
   -0.9189    2.3380   -0.6117 C   0  0  0  0  0  0  0  0  0  0  0  0
    0.1527    4.3076    0.1293 C   0  0  0  0  0  0  0  0  0  0  0  0
   -3.4970    1.8784    0.9931 C   0  0  0  0  0  0  0  0  0  0  0  0
   -4.0739    4.1628    0.9840 C   0  0  0  0  0  0  0  0  0  0  0  0
   -1.4205    0.9988   -0.2161 C   0  0  0  0  0  3  0  0  0  0  0  0
   -2.5828    0.8309    0.4743 C   0  0  0  0  0  0  0  0  0  0  0  0
   -3.0808   -0.5900    0.6902 C   0  0  2  0  0  0  0  0  0  0  0  0
   -2.1050   -1.4246    1.4799 C   0  0  0  0  0  3  0  0  0  0  0  0
   -0.9218   -1.6525    1.0226 N   0  0  0  0  0  2  0  0  0  0  0  0
   -3.3282   -1.2730   -0.5800 N   0  0  0  0  0  0  0  0  0  0  0  0
   -2.5170   -1.9352   -2.6047 O   0  0  0  0  0  0  0  0  0  0  0  0
   -0.8913    2.7553   -1.7618 O   0  0  0  0  0  0  0  0  0  0  0  0
   -0.3978    3.0249    0.4350 O   0  0  0  0  0  0  0  0  0  0  0  0
   -4.4314    1.6611    1.7589 O   0  0  0  0  0  0  0  0  0  0  0  0
   -3.2270    3.1159    0.5087 O   0  0  0  0  0  0  0  0  0  0  0  0
    0.9194   -2.5882    1.2162 H   0  0  0  0  0  0  0  0  0  0  0  0
   -4.5812   -2.1755   -1.9001 H   0  0  0  0  0  0  0  0  0  0  0  0
   -4.0295   -0.5361    1.2520 H   0  0  0  0  0  0  0  0  0  0  0  0
   -2.4498   -1.9029    2.4181 H   0  0  0  0  0  0  0  0  0  0  0  0
    0.4784   -1.4311    3.3997 H   0  0  0  0  0  0  0  0  0  0  0  0
   -0.8523   -2.5907    3.7520 H   0  0  0  0  0  0  0  0  0  0  0  0
    0.8291   -3.1743    3.5908 H   0  0  0  0  0  0  0  0  0  0  0  0
   -1.6064   -4.2397    1.8636 H   0  0  0  0  0  0  0  0  0  0  0  0
   -0.7635   -4.2129    0.2798 H   0  0  0  0  0  0  0  0  0  0  0  0
    0.0770   -4.8534    1.7288 H   0  0  0  0  0  0  0  0  0  0  0  0
   -5.7694    0.0163   -0.0470 H   0  0  0  0  0  0  0  0  0  0  0  0
   -5.2796    0.2049   -1.7637 H   0  0  0  0  0  0  0  0  0  0  0  0
   -6.6593   -0.8594   -1.3310 H   0  0  0  0  0  0  0  0  0  0  0  0
   -4.4791   -3.6288    0.1313 H   0  0  0  0  0  0  0  0  0  0  0  0
   -5.3084   -2.3682    1.1124 H   0  0  0  0  0  0  0  0  0  0  0  0
   -6.1775   -3.1686   -0.2250 H   0  0  0  0  0  0  0  0  0  0  0  0
    0.5235    4.7116    1.0884 H   0  0  0  0  0  0  0  0  0  0  0  0
    0.9899    4.2220   -0.5931 H   0  0  0  0  0  0  0  0  0  0  0  0
   -0.6201    4.9738   -0.3054 H   0  0  0  0  0  0  0  0  0  0  0  0
   -5.1367    3.9500    0.7500 H   0  0  0  0  0  0  0  0  0  0  0  0
   -3.9809    4.2814    2.0830 H   0  0  0  0  0  0  0  0  0  0  0  0
   -3.7423    5.0820    0.4685 H   0  0  0  0  0  0  0  0  0  0  0  0
  1 17  1  0  0  0  0
  2  3  1  0  0  0  0
  3 27  1  0  0  0  0
  3 29  1  0  0  0  0
  3 28  1  0  0  0  0
  4  2  1  0  0  0  0
  4 32  1  0  0  0  0
  4 30  1  0  0  0  0
  5 17  1  0  0  0  0
  5  7  1  0  0  0  0
  6  5  1  0  0  0  0
  6 33  1  0  0  0  0
  7 36  1  0  0  0  0
  7 37  1  0  0  0  0
  8 12  1  0  0  0  0
  8 20  1  0  0  0  0
  9 20  1  0  0  0  0
  9 39  1  0  0  0  0
 10 21  2  0  0  0  0
 11 43  1  0  0  0  0
 12 13  2  0  0  0  0
 13 14  1  0  0  0  0
 13 10  1  0  0  0  0
 14 25  1  1  0  0  0
 14 15  1  0  0  0  0
 15 26  1  0  0  0  0
 16 15  1  0  0  0  0
 16  2  1  0  0  0  0
 17 14  1  0  0  0  0
 18  1  2  0  0  0  0
 19  8  2  0  0  0  0
 22 11  1  0  0  0  0
 22 10  1  0  0  0  0
 23  2  1  0  0  0  0
 24  5  1  0  0  0  0
 31  4  1  0  0  0  0
 34  6  1  0  0  0  0
 35  6  1  0  0  0  0
 38  7  1  0  0  0  0
 40  9  1  0  0  0  0
 41  9  1  0  0  0  0
 42 11  1  0  0  0  0
 44 11  1  0  0  0  0
M  END
