1,14,26
 OpenBabel05122313063D

 26 27  0  0  0  0  0  0  0  0999 V2000
   -0.1323   -1.8719   -0.2975 N   0  0  0  0  0  2  0  0  0  0  0  0
    1.0756   -2.6749   -0.4474 C   0  0  0  0  0  0  0  0  0  0  0  0
    1.0744   -3.1750   -1.4458 H   0  0  0  0  0  0  0  0  0  0  0  0
    1.0801   -3.5024    0.3016 H   0  0  0  0  0  0  0  0  0  0  0  0
    2.2653   -1.7684   -0.2861 C   0  0  0  0  0  0  0  0  0  0  0  0
    3.5674   -2.2919   -0.3627 C   0  0  0  0  0  0  0  0  0  0  0  0
    3.7142   -3.3718   -0.5382 H   0  0  0  0  0  0  0  0  0  0  0  0
    4.6819   -1.4513   -0.2194 C   0  0  0  0  0  0  0  0  0  0  0  0
    5.7034   -1.8567   -0.2798 H   0  0  0  0  0  0  0  0  0  0  0  0
    4.4585   -0.0853    0.0027 C   0  0  0  0  0  0  0  0  0  0  0  0
    5.3125    0.6019    0.1201 H   0  0  0  0  0  0  0  0  0  0  0  0
    3.1470    0.4171    0.0776 C   0  0  0  0  0  0  0  0  0  0  0  0
    3.0559    1.4986    0.2554 H   0  0  0  0  0  0  0  0  0  0  0  0
    1.9823   -0.3832   -0.0621 C   0  0  0  0  0  3  0  0  0  0  0  0
   -1.3165   -2.4196   -0.3677 C   0  0  0  0  0  3  0  0  0  0  0  0
   -1.4397   -3.5076   -0.5362 H   0  0  0  0  0  0  0  0  0  0  0  0
   -2.4240   -1.5137   -0.2160 C   0  0  0  0  0  0  0  0  0  0  0  0
   -3.7716   -1.9377   -0.2665 C   0  0  0  0  0  0  0  0  0  0  0  0
   -4.0039   -3.0044   -0.4239 H   0  0  0  0  0  0  0  0  0  0  0  0
   -4.7979   -1.0004   -0.1167 C   0  0  0  0  0  0  0  0  0  0  0  0
   -5.8535   -1.3089   -0.1521 H   0  0  0  0  0  0  0  0  0  0  0  0
   -4.4485    0.3493    0.0797 C   0  0  0  0  0  0  0  0  0  0  0  0
   -5.2436    1.1040    0.1984 H   0  0  0  0  0  0  0  0  0  0  0  0
   -3.1021    0.7554    0.1269 C   0  0  0  0  0  0  0  0  0  0  0  0
   -2.9128    1.8248    0.2824 H   0  0  0  0  0  0  0  0  0  0  0  0
   -2.0103   -0.1412   -0.0143 C   0  0  0  0  0  3  0  0  0  0  0  0
  2  1  1  0  0  0  0
  2  5  1  0  0  0  0
  2  4  1  0  0  0  0
  3  2  1  0  0  0  0
  5 14  1  0  0  0  0
  6  5  2  0  0  0  0
  6  8  1  0  0  0  0
  7  6  1  0  0  0  0
  8 10  2  0  0  0  0
  9  8  1  0  0  0  0
 10 12  1  0  0  0  0
 10 11  1  0  0  0  0
 12 13  1  0  0  0  0
 14 12  2  0  0  0  0
 15  1  1  0  0  0  0
 15 17  1  0  0  0  0
 16 15  1  0  0  0  0
 17 26  1  0  0  0  0
 18 17  2  0  0  0  0
 18 20  1  0  0  0  0
 19 18  1  0  0  0  0
 20 22  2  0  0  0  0
 21 20  1  0  0  0  0
 22 24  1  0  0  0  0
 22 23  1  0  0  0  0
 24 25  1  0  0  0  0
 26 24  2  0  0  0  0
M  END
