1,2
 OpenBabel05122313063D

 12 11  0  0  0  0  0  0  0  0999 V2000
   -1.9845    1.1814    0.0000 N   0  0  0  0  0  1  0  0  0  0  0  0
   -2.0554   -1.4249   -0.0002 N   0  0  0  0  0  1  0  0  0  0  0  0
   -3.1274    1.4605   -0.0001 C   0  0  0  0  0  2  0  0  0  0  0  0
   -3.2292   -1.5294    0.0004 C   0  0  0  0  0  2  0  0  0  0  0  0
   -4.6333   -1.6483    0.0009 C   0  0  0  0  0  0  0  0  0  0  0  0
   -5.5769   -0.6432    0.0008 C   0  0  0  0  0  0  0  0  0  0  0  0
   -5.5267    0.8063   -0.0001 C   0  0  0  0  0  0  0  0  0  0  0  0
   -4.5070    1.7339   -0.0004 C   0  0  0  0  0  0  0  0  0  0  0  0
   -5.0020   -2.6886    0.0017 H   0  0  0  0  0  0  0  0  0  0  0  0
   -6.6101   -1.0259    0.0014 H   0  0  0  0  0  0  0  0  0  0  0  0
   -6.5292    1.2637   -0.0004 H   0  0  0  0  0  0  0  0  0  0  0  0
   -4.7795    2.8028   -0.0010 H   0  0  0  0  0  0  0  0  0  0  0  0
  2  4  1  0  0  0  0
  3  1  1  0  0  0  0
  4  5  1  0  0  0  0
  5  9  1  0  0  0  0
  6  5  2  0  0  0  0
  6 10  1  0  0  0  0
  7  6  1  0  0  0  0
  8  3  1  0  0  0  0
  8  7  2  0  0  0  0
 11  7  1  0  0  0  0
 12  8  1  0  0  0  0
M  END
