1,5
 OpenBabel05122313063D

  5  4  0  0  0  0  0  0  0  0999 V2000
   -0.8989   -1.1522   -0.8097 N   0  0  0  0  0  0  0  0  0  0  0  0
   -2.3204   -1.8357   -1.0362 S   0  0  0  0  0  0  0  0  0  0  0  0
   -3.5784   -1.0734   -0.3468 N   0  0  0  0  0  0  0  0  0  0  0  0
   -3.5680    0.2997    0.5445 S   0  0  0  0  0  0  0  0  0  0  0  0
   -2.0366    0.8563    0.6658 N   0  0  0  0  0  0  0  0  0  0  0  0
  2  1  1  0  0  0  0
  2  3  1  0  0  0  0
  3  4  1  0  0  0  0
  4  5  1  0  0  0  0
M  END
