1,8
 OpenBabel05122313063D

 14 19  0  0  1  0  0  0  0  0999 V2000
   -0.5134    1.7896   -2.1784 N   0  0  0  0  0  0  0  0  0  0  0  0
    0.1170    3.1999   -2.1907 S   0  0  0  0  0  0  0  0  0  0  0  0
    1.2922    3.6482   -1.2248 N   0  0  0  0  0  0  0  0  0  0  0  0
    2.3182    2.9800   -0.0483 Si  0  0  0  0  0  0  0  0  0  0  0  0
    2.9089    4.1079    1.2965 C   0  0  2  0  0  0  0  0  0  0  0  0
    1.9459    3.0714    1.7872 C   0  0  1  0  0  0  0  0  0  0  0  0
    2.4978    4.0714    2.6598 C   0  0  0  0  0  5  0  0  0  0  0  0
    1.2447   -0.3762   -2.5274 N   0  0  0  0  0  0  0  0  0  0  0  0
    2.7408   -0.2412   -2.8819 S   0  0  0  0  0  0  0  0  0  0  0  0
    3.8378    0.3888   -1.9230 N   0  0  0  0  0  0  0  0  0  0  0  0
    3.8211    1.2464   -0.4563 Si  0  0  0  0  0  0  0  0  0  0  0  0
    4.4072    0.5086    1.1509 C   0  0  1  0  0  0  0  0  0  0  0  0
    5.7220    0.7114    1.6884 C   0  0  0  0  0  5  0  0  0  0  0  0
    5.4142    1.3909    0.4705 C   0  0  1  0  0  0  0  0  0  0  0  0
  2  1  1  0  0  0  0
  2  3  1  0  0  0  0
  3  4  1  0  0  0  0
  4  5  1  0  0  0  0
  4  6  1  0  0  0  0
  4  7  1  0  0  0  0
  5  6  1  0  0  0  0
  5  7  1  6  0  0  0
  6  7  1  6  0  0  0
  9  8  1  0  0  0  0
  9 10  1  0  0  0  0
 10 11  1  0  0  0  0
 11  4  1  0  0  0  0
 11 14  1  0  0  0  0
 11 12  1  0  0  0  0
 11 13  1  0  0  0  0
 12 13  1  6  0  0  0
 14 12  1  0  0  0  0
 14 13  1  6  0  0  0
M  ZBO  2   6   0  16   0
M  END
