1,2
 OpenBabel05122313063D

 25 26  0  0  0  0  0  0  0  0999 V2000
    1.2395   -1.3426   -0.2571 N   0  0  0  0  0  1  0  0  0  0  0  0
    1.2390    1.3432   -0.2580 N   0  0  0  0  0  1  0  0  0  0  0  0
    2.4475   -1.9194    0.0024 C   0  0  0  0  0  0  0  0  0  0  0  0
    2.5073   -3.1469    0.7171 C   0  0  0  0  0  0  0  0  0  0  0  0
    1.5575   -3.6137    1.0165 H   0  0  0  0  0  0  0  0  0  0  0  0
    3.7366   -3.7219    1.0511 C   0  0  0  0  0  0  0  0  0  0  0  0
    3.7653   -4.6639    1.6195 H   0  0  0  0  0  0  0  0  0  0  0  0
    4.9301   -3.0989    0.6502 C   0  0  0  0  0  0  0  0  0  0  0  0
    5.9025   -3.5488    0.9005 H   0  0  0  0  0  0  0  0  0  0  0  0
    4.8801   -1.9029   -0.0848 C   0  0  0  0  0  0  0  0  0  0  0  0
    5.8196   -1.4286   -0.4110 H   0  0  0  0  0  0  0  0  0  0  0  0
    3.6646   -1.2859   -0.4211 C   0  0  0  0  0  0  0  0  0  0  0  0
    3.6454    0.0004   -1.2304 C   0  0  0  0  0  0  0  0  0  0  0  0
    2.7565    0.0003   -1.8922 H   0  0  0  0  0  0  0  0  0  0  0  0
    4.5419    0.0006   -1.8818 H   0  0  0  0  0  0  0  0  0  0  0  0
    3.6642    1.2865   -0.4208 C   0  0  0  0  0  0  0  0  0  0  0  0
    4.8795    1.9035   -0.0838 C   0  0  0  0  0  0  0  0  0  0  0  0
    5.8192    1.4292   -0.4095 H   0  0  0  0  0  0  0  0  0  0  0  0
    4.9291    3.0994    0.6514 C   0  0  0  0  0  0  0  0  0  0  0  0
    5.9014    3.5492    0.9023 H   0  0  0  0  0  0  0  0  0  0  0  0
    3.7355    3.7224    1.0516 C   0  0  0  0  0  0  0  0  0  0  0  0
    3.7638    4.6643    1.6201 H   0  0  0  0  0  0  0  0  0  0  0  0
    2.5063    3.1474    0.7169 C   0  0  0  0  0  0  0  0  0  0  0  0
    1.5563    3.6143    1.0158 H   0  0  0  0  0  0  0  0  0  0  0  0
    2.4469    1.9201    0.0021 C   0  0  0  0  0  0  0  0  0  0  0  0
  1  3  1  0  0  0  0
  2 25  1  0  0  0  0
  3  4  1  0  0  0  0
  4  5  1  0  0  0  0
  4  6  2  0  0  0  0
  6  7  1  0  0  0  0
  8  9  1  0  0  0  0
  8  6  1  0  0  0  0
 10  8  2  0  0  0  0
 11 10  1  0  0  0  0
 12 10  1  0  0  0  0
 12  3  2  0  0  0  0
 13 12  1  0  0  0  0
 13 16  1  0  0  0  0
 14 13  1  0  0  0  0
 15 13  1  0  0  0  0
 16 17  2  0  0  0  0
 16 25  1  0  0  0  0
 17 19  1  0  0  0  0
 18 17  1  0  0  0  0
 19 20  1  0  0  0  0
 19 21  2  0  0  0  0
 21 22  1  0  0  0  0
 23 24  1  0  0  0  0
 23 21  1  0  0  0  0
 25 23  2  0  0  0  0
M  END
