1,2
 OpenBabel05122313063D

 13 13  0  0  0  0  0  0  0  0999 V2000
   -0.5824   -2.9964    0.4657 N   0  0  0  0  0  2  0  0  0  0  0  0
    0.1561   -2.3843   -1.8720 N   0  0  0  0  0  1  0  0  0  0  0  0
   -0.9215   -3.1553    1.7629 C   0  0  0  0  0  3  0  0  0  0  0  0
   -0.9011   -2.2426    2.3771 H   0  0  0  0  0  0  0  0  0  0  0  0
   -1.2666   -4.4149    2.2668 C   0  0  0  0  0  0  0  0  0  0  0  0
   -1.5251   -4.5143    3.3306 H   0  0  0  0  0  0  0  0  0  0  0  0
   -1.2826   -5.5276    1.4075 C   0  0  0  0  0  0  0  0  0  0  0  0
   -1.5543   -6.5232    1.7893 H   0  0  0  0  0  0  0  0  0  0  0  0
   -0.9598   -5.3422    0.0554 C   0  0  0  0  0  0  0  0  0  0  0  0
   -0.9814   -6.1517   -0.6891 H   0  0  0  0  0  0  0  0  0  0  0  0
   -0.6113   -4.0621   -0.3770 C   0  0  0  0  0  0  0  0  0  0  0  0
   -0.3684   -3.6546   -1.8125 C   0  0  0  0  0  0  0  0  0  0  0  0
   -0.6413   -4.3824   -2.7701 O   0  0  0  0  0  0  0  0  0  0  0  0
  1  3  1  0  0  0  0
  2 12  1  0  0  0  0
  3  5  1  0  0  0  0
  3  4  1  0  0  0  0
  5  6  1  0  0  0  0
  7  8  1  0  0  0  0
  7  5  2  0  0  0  0
  9  7  1  0  0  0  0
 10  9  1  0  0  0  0
 11  9  2  0  0  0  0
 11  1  1  0  0  0  0
 12 11  1  0  0  0  0
 13 12  2  0  0  0  0
M  END
