2,3,12
 OpenBabel05122313063D

 34 36  0  0  1  0  0  0  0  0999 V2000
   -1.6114    1.2016   -0.9570 N   0  0  0  0  0  0  0  0  0  0  0  0
   -0.3598   -2.2315    0.6129 O   0  5  0  0  0  0  0  0  0  0  0  0
   -0.4519    0.6289    2.3521 O   0  5  0  0  0  0  0  0  0  0  0  0
   -2.3604    0.1771    1.1114 N   0  0  0  0  0  0  0  0  0  0  0  0
   -1.8624   -1.1857   -0.7933 N   0  0  0  0  0  0  0  0  0  0  0  0
    0.2087    0.2638   -2.0224 O   0  0  0  0  0  0  0  0  0  0  0  0
   -0.5732    1.2242   -1.9628 C   0  0  0  0  0  0  0  0  0  0  0  0
   -3.7158   -0.0604    1.0704 C   0  0  0  0  0  3  0  0  0  0  0  0
   -4.1214   -0.3444    0.0891 H   0  0  0  0  0  0  0  0  0  0  0  0
   -2.4876    2.2433   -0.7876 C   0  0  0  0  0  0  0  0  0  0  0  0
   -3.2089    2.1479    0.0348 H   0  0  0  0  0  0  0  0  0  0  0  0
   -1.5286    0.0481   -0.0782 C   0  0  1  0  0  3  0  0  0  0  0  0
   -1.4810   -3.5636   -1.0244 C   0  0  0  0  0  0  0  0  0  0  0  0
   -0.9563   -4.4613   -0.6713 H   0  0  0  0  0  0  0  0  0  0  0  0
   -1.6913    0.4896    2.3332 C   0  0  0  0  0  0  0  0  0  0  0  0
   -2.6977   -1.2177   -1.8780 C   0  0  0  0  0  3  0  0  0  0  0  0
   -3.1120   -0.2474   -2.1877 H   0  0  0  0  0  0  0  0  0  0  0  0
   -2.3539   -3.5891   -2.0949 C   0  0  0  0  0  0  0  0  0  0  0  0
   -2.5555   -4.5384   -2.6144 H   0  0  0  0  0  0  0  0  0  0  0  0
   -1.1757   -2.3411   -0.3361 C   0  0  0  0  0  0  0  0  0  0  0  0
   -4.5107    0.0420    2.1879 C   0  0  0  0  0  0  0  0  0  0  0  0
   -5.5868   -0.1603    2.1122 H   0  0  0  0  0  0  0  0  0  0  0  0
   -2.5412    0.6185    3.4918 C   0  0  0  0  0  0  0  0  0  0  0  0
   -2.0317    0.8699    4.4317 H   0  0  0  0  0  0  0  0  0  0  0  0
   -2.4429    3.3636   -1.5914 C   0  0  0  0  0  0  0  0  0  0  0  0
   -3.1539    4.1809   -1.4154 H   0  0  0  0  0  0  0  0  0  0  0  0
   -3.9004    0.4037    3.4235 C   0  0  0  0  0  0  0  0  0  0  0  0
   -4.5167    0.4969    4.3310 H   0  0  0  0  0  0  0  0  0  0  0  0
   -0.5602    2.4024   -2.7925 C   0  0  0  0  0  0  0  0  0  0  0  0
    0.2311    2.4398   -3.5533 H   0  0  0  0  0  0  0  0  0  0  0  0
   -1.4624    3.4329   -2.6177 C   0  0  0  0  0  0  0  0  0  0  0  0
   -1.4102    4.3223   -3.2645 H   0  0  0  0  0  0  0  0  0  0  0  0
   -2.9706   -2.3915   -2.5470 C   0  0  0  0  0  0  0  0  0  0  0  0
   -3.6400   -2.3790   -3.4168 H   0  0  0  0  0  0  0  0  0  0  0  0
  1 10  1  0  0  0  0
  4 15  1  0  0  0  0
  5 20  1  0  0  0  0
  5 12  1  0  0  0  0
  6  7  2  0  0  0  0
  7  1  1  0  0  0  0
  8  4  1  0  0  0  0
  8 21  1  0  0  0  0
  9  8  1  0  0  0  0
 10 11  1  0  0  0  0
 12  1  1  6  0  0  0
 12  4  1  0  0  0  0
 13 14  1  0  0  0  0
 13 20  2  0  0  0  0
 15  3  1  0  0  0  0
 15 23  2  0  0  0  0
 16  5  1  0  0  0  0
 17 16  1  0  0  0  0
 18 13  1  0  0  0  0
 19 18  1  0  0  0  0
 20  2  1  0  0  0  0
 21 27  2  0  0  0  0
 22 21  1  0  0  0  0
 23 24  1  0  0  0  0
 25 26  1  0  0  0  0
 25 10  2  0  0  0  0
 27 23  1  0  0  0  0
 27 28  1  0  0  0  0
 29 31  2  0  0  0  0
 29  7  1  0  0  0  0
 30 29  1  0  0  0  0
 31 25  1  0  0  0  0
 32 31  1  0  0  0  0
 33 18  2  0  0  0  0
 33 16  1  0  0  0  0
 34 33  1  0  0  0  0
M  CHG  2   2  -1   3  -1
M  END
