1,5,6
 OpenBabel05122313063D

 23 22  0  0  0  0  0  0  0  0999 V2000
    0.8249    1.0934   -1.3656 O   0  5  0  0  0  0  0  0  0  0  0  0
    2.2034    2.8511   -1.5544 O   0  0  0  0  0  0  0  0  0  0  0  0
   -4.1125    0.9192   -1.1250 O   0  0  0  0  0  0  0  0  0  0  0  0
   -3.5729    0.0467    0.8997 O   0  0  0  0  0  0  0  0  0  0  0  0
    1.7319    0.5355    1.1795 N   0  0  0  0  0  0  0  0  0  0  0  0
   -1.0545    0.9751    0.7804 N   0  0  0  0  0  0  0  0  0  0  0  0
    0.9448    1.3027    2.1825 C   0  0  0  0  0  0  0  0  0  0  0  0
   -0.2371    1.9860    1.5028 C   0  0  0  0  0  0  0  0  0  0  0  0
    2.6066    1.3180    0.2671 C   0  0  0  0  0  0  0  0  0  0  0  0
    1.8473    1.8405   -0.9754 C   0  0  0  0  0  0  0  0  0  0  0  0
   -2.0277    1.5428   -0.1751 C   0  0  0  0  0  0  0  0  0  0  0  0
   -3.3067    0.7264   -0.0751 C   0  0  0  0  0  0  0  0  0  0  0  0
    2.2620   -0.2191    1.6427 H   0  0  0  0  0  0  0  0  0  0  0  0
   -1.6061    0.3874    1.4484 H   0  0  0  0  0  0  0  0  0  0  0  0
    0.5808    0.5605    2.9212 H   0  0  0  0  0  0  0  0  0  0  0  0
    1.5861    2.0489    2.6964 H   0  0  0  0  0  0  0  0  0  0  0  0
    0.1093    2.7373    0.7654 H   0  0  0  0  0  0  0  0  0  0  0  0
   -0.8599    2.5166    2.2537 H   0  0  0  0  0  0  0  0  0  0  0  0
    3.0978    2.1588    0.7952 H   0  0  0  0  0  0  0  0  0  0  0  0
    3.3753    0.6148   -0.1117 H   0  0  0  0  0  0  0  0  0  0  0  0
   -2.2712    2.5919    0.1036 H   0  0  0  0  0  0  0  0  0  0  0  0
   -1.6134    1.5413   -1.2014 H   0  0  0  0  0  0  0  0  0  0  0  0
   -4.9120    0.3695   -0.9695 H   0  0  0  0  0  0  0  0  0  0  0  0
  1 10  1  0  0  0  0
  2 10  2  0  0  0  0
  3 23  1  0  0  0  0
  3 12  1  0  0  0  0
  5 13  1  0  0  0  0
  5  7  1  0  0  0  0
  6 14  1  0  0  0  0
  6  8  1  0  0  0  0
  7 16  1  0  0  0  0
  7 15  1  0  0  0  0
  8  7  1  0  0  0  0
  8 18  1  0  0  0  0
  9 19  1  0  0  0  0
  9  5  1  0  0  0  0
 10  9  1  0  0  0  0
 11 12  1  0  0  0  0
 11 21  1  0  0  0  0
 11  6  1  0  0  0  0
 12  4  2  0  0  0  0
 17  8  1  0  0  0  0
 20  9  1  0  0  0  0
 22 11  1  0  0  0  0
M  CHG  1   1  -1
M  END
