1,2,5
 OpenBabel05122313063D

 20 19  0  0  0  0  0  0  0  0999 V2000
    0.8385   -0.2792   -1.5438 N   0  0  0  0  0  2  0  0  0  0  0  0
    1.7345    0.2502    0.6852 N   0  0  0  0  0  2  0  0  0  0  0  0
    0.1946   -0.5048   -2.7163 O   0  0  0  0  0  0  0  0  0  0  0  0
   -0.7393   -0.3087   -2.4629 H   0  0  0  0  0  0  0  0  0  0  0  0
   -0.5491    0.7362    1.7840 O   0  5  0  0  0  0  0  0  0  0  0  0
    0.2815    1.1527    3.8296 O   0  0  0  0  0  0  0  0  0  0  0  0
    2.1420   -0.4564   -1.4886 C   0  0  0  0  0  0  0  0  0  0  0  0
    2.6601   -0.1444   -0.1473 C   0  0  0  0  0  0  0  0  0  0  0  0
    2.9774   -0.8957   -2.6449 C   0  0  0  0  0  0  0  0  0  0  0  0
    2.3374   -1.2398   -3.4763 H   0  0  0  0  0  0  0  0  0  0  0  0
    3.6585   -1.7188   -2.3497 H   0  0  0  0  0  0  0  0  0  0  0  0
    3.6078   -0.0604   -3.0175 H   0  0  0  0  0  0  0  0  0  0  0  0
    4.1057   -0.3076    0.2024 C   0  0  0  0  0  0  0  0  0  0  0  0
    4.3345   -1.3794    0.3886 H   0  0  0  0  0  0  0  0  0  0  0  0
    4.3648    0.2574    1.1163 H   0  0  0  0  0  0  0  0  0  0  0  0
    4.7622    0.0320   -0.6222 H   0  0  0  0  0  0  0  0  0  0  0  0
    1.8501    0.5976    2.0802 C   0  0  0  0  0  0  0  0  0  0  0  0
    2.4552    1.5197    2.2200 H   0  0  0  0  0  0  0  0  0  0  0  0
    2.3299   -0.2140    2.6675 H   0  0  0  0  0  0  0  0  0  0  0  0
    0.4299    0.8599    2.6547 C   0  0  0  0  0  0  0  0  0  0  0  0
  1  7  1  0  0  0  0
  2 17  1  0  0  0  0
  3  4  1  0  0  0  0
  3  1  1  0  0  0  0
  5 20  1  0  0  0  0
  7  8  2  0  0  0  0
  8 13  1  0  0  0  0
  8  2  1  0  0  0  0
  9 11  1  0  0  0  0
  9  7  1  0  0  0  0
 10  9  1  0  0  0  0
 12  9  1  0  0  0  0
 13 14  1  0  0  0  0
 13 15  1  0  0  0  0
 16 13  1  0  0  0  0
 17 18  1  0  0  0  0
 17 20  1  0  0  0  0
 17 19  1  0  0  0  0
 20  6  2  0  0  0  0
M  CHG  1   5  -1
M  END
