1,3,4
 OpenBabel05122313063D

 19 19  0  0  1  0  0  0  0  0999 V2000
   -0.0301    0.9227    1.3394 O   0  5  0  0  0  0  0  0  0  0  0  0
   -1.5670    2.4438    2.0336 O   0  0  0  0  0  0  0  0  0  0  0  0
   -1.3357   -0.8233   -0.1957 N   0  0  0  0  0  2  0  0  0  0  0  0
    0.1311    1.7868   -1.0232 N   0  0  0  0  0  0  0  0  0  0  0  0
    0.9267    2.4180   -0.8094 H   0  0  0  0  0  0  0  0  0  0  0  0
    0.0299    1.7555   -2.0477 H   0  0  0  0  0  0  0  0  0  0  0  0
   -3.1372   -2.0209    0.1533 N   0  0  0  0  0  0  0  0  0  0  0  0
   -3.7320   -2.8122    0.4024 H   0  0  0  0  0  0  0  0  0  0  0  0
   -1.7838   -2.0264    0.1687 C   0  0  0  0  0  3  0  0  0  0  0  0
   -1.1340   -2.8526    0.4833 H   0  0  0  0  0  0  0  0  0  0  0  0
   -3.5750   -0.7617   -0.2200 C   0  0  0  0  0  0  0  0  0  0  0  0
   -4.6361   -0.5061   -0.2912 H   0  0  0  0  0  0  0  0  0  0  0  0
   -2.4354   -0.0097   -0.4439 C   0  0  0  0  0  0  0  0  0  0  0  0
   -2.3267    1.4270   -0.8812 C   0  0  0  0  0  0  0  0  0  0  0  0
   -3.2387    1.9575   -0.5464 H   0  0  0  0  0  0  0  0  0  0  0  0
   -2.3226    1.4867   -1.9938 H   0  0  0  0  0  0  0  0  0  0  0  0
   -1.1081    2.2038   -0.3386 C   0  0  1  0  0  0  0  0  0  0  0  0
   -1.2949    3.2910   -0.4555 H   0  0  0  0  0  0  0  0  0  0  0  0
   -0.9170    1.8864    1.1703 C   0  0  0  0  0  0  0  0  0  0  0  0
  3  9  1  0  0  0  0
  4  5  1  0  0  0  0
  4 17  1  0  0  0  0
  6  4  1  0  0  0  0
  7  9  1  0  0  0  0
  7  8  1  0  0  0  0
  9 10  1  0  0  0  0
 11  7  1  0  0  0  0
 12 11  1  0  0  0  0
 13 11  2  0  0  0  0
 13  3  1  0  0  0  0
 14 15  1  0  0  0  0
 14 13  1  0  0  0  0
 14 17  1  0  0  0  0
 16 14  1  0  0  0  0
 17 18  1  6  0  0  0
 17 19  1  0  0  0  0
 19  1  1  0  0  0  0
 19  2  2  0  0  0  0
M  CHG  1   1  -1
M  END
