1,2,3
 OpenBabel05122313063D

 36 39  0  0  0  0  0  0  0  0999 V2000
    1.3576    0.7939    0.0257 O   0  5  0  0  0  0  0  0  0  0  0  0
   -0.1818   -0.5739   -1.9169 N   0  0  0  0  0  2  0  0  0  0  0  0
   -1.3809   -1.9061   -0.0503 N   0  0  0  0  0  2  0  0  0  0  0  0
    1.9431    1.3141   -0.9910 C   0  0  0  0  0  0  0  0  0  0  0  0
    3.0269    2.2664   -0.7330 C   0  0  0  0  0  0  0  0  0  0  0  0
    3.3941    2.5679    0.6018 C   0  0  0  0  0  0  0  0  0  0  0  0
    4.4237    3.4657    0.8730 C   0  0  0  0  0  0  0  0  0  0  0  0
    5.1158    4.0870   -0.1931 C   0  0  0  0  0  0  0  0  0  0  0  0
    4.7706    3.8042   -1.5126 C   0  0  0  0  0  0  0  0  0  0  0  0
    3.7243    2.8932   -1.8177 C   0  0  0  0  0  0  0  0  0  0  0  0
    3.3481    2.5886   -3.1720 C   0  0  0  0  0  0  0  0  0  0  0  0
    2.3299    1.7028   -3.4221 C   0  0  0  0  0  0  0  0  0  0  0  0
    1.6023    1.0375   -2.3720 C   0  0  0  0  0  0  0  0  0  0  0  0
    0.5474    0.1654   -2.7443 C   0  0  0  0  0  3  0  0  0  0  0  0
   -1.2683   -1.3375   -2.3587 C   0  0  0  0  0  0  0  0  0  0  0  0
   -1.7809   -1.4499   -3.6580 C   0  0  0  0  0  0  0  0  0  0  0  0
   -2.8788   -2.3042   -3.9219 C   0  0  0  0  0  0  0  0  0  0  0  0
   -3.4765   -3.0584   -2.9173 C   0  0  0  0  0  3  0  0  0  0  0  0
   -2.9925   -2.9679   -1.5807 C   0  0  0  0  0  0  0  0  0  0  0  0
   -3.5217   -3.7018   -0.4789 C   0  0  0  0  0  0  0  0  0  0  0  0
   -2.9588   -3.5324    0.7792 C   0  0  0  0  0  0  0  0  0  0  0  0
   -1.8903   -2.6245    0.9598 C   0  0  0  0  0  0  0  0  0  0  0  0
   -1.9009   -2.0853   -1.3148 C   0  0  0  0  0  0  0  0  0  0  0  0
    2.8379    2.0705    1.4091 H   0  0  0  0  0  0  0  0  0  0  0  0
    4.6988    3.6931    1.9141 H   0  0  0  0  0  0  0  0  0  0  0  0
    5.9296    4.7971    0.0206 H   0  0  0  0  0  0  0  0  0  0  0  0
    5.3078    4.2882   -2.3434 H   0  0  0  0  0  0  0  0  0  0  0  0
    3.8852    3.0785   -3.9978 H   0  0  0  0  0  0  0  0  0  0  0  0
    2.0416    1.4782   -4.4622 H   0  0  0  0  0  0  0  0  0  0  0  0
   -1.3394   -0.8767   -4.4849 H   0  0  0  0  0  0  0  0  0  0  0  0
   -3.2613   -2.3700   -4.9518 H   0  0  0  0  0  0  0  0  0  0  0  0
   -4.3244   -3.7236   -3.1381 H   0  0  0  0  0  0  0  0  0  0  0  0
   -4.3643   -4.3911   -0.6389 H   0  0  0  0  0  0  0  0  0  0  0  0
   -3.3385   -4.0838    1.6513 H   0  0  0  0  0  0  0  0  0  0  0  0
   -1.4445   -2.4546    1.9500 H   0  0  0  0  0  0  0  0  0  0  0  0
    0.3344    0.1048   -3.8290 H   0  0  0  0  0  0  0  0  0  0  0  0
  3 22  1  0  0  0  0
  4  5  1  0  0  0  0
  4  1  1  0  0  0  0
  5  6  1  0  0  0  0
  6  7  2  0  0  0  0
  6 24  1  0  0  0  0
  7 25  1  0  0  0  0
  8 26  1  0  0  0  0
  8  7  1  0  0  0  0
  9  8  2  0  0  0  0
 10  9  1  0  0  0  0
 10  5  2  0  0  0  0
 11 10  1  0  0  0  0
 12 11  2  0  0  0  0
 12 13  1  0  0  0  0
 13  4  2  0  0  0  0
 14 13  1  0  0  0  0
 14  2  1  0  0  0  0
 15  2  1  0  0  0  0
 15 23  2  0  0  0  0
 16 15  1  0  0  0  0
 17 16  2  0  0  0  0
 17 18  1  0  0  0  0
 18 19  1  0  0  0  0
 19 23  1  0  0  0  0
 19 20  2  0  0  0  0
 20 21  1  0  0  0  0
 21 22  2  0  0  0  0
 21 34  1  0  0  0  0
 22 35  1  0  0  0  0
 23  3  1  0  0  0  0
 27  9  1  0  0  0  0
 28 11  1  0  0  0  0
 29 12  1  0  0  0  0
 30 16  1  0  0  0  0
 31 17  1  0  0  0  0
 32 18  1  0  0  0  0
 33 20  1  0  0  0  0
 36 14  1  0  0  0  0
M  CHG  1   1  -1
M  END
