1,2,4
 OpenBabel05122313063D

 34 35  0  0  1  0  0  0  0  0999 V2000
    0.3338   -0.1728    2.0300 O   0  0  0  0  0  1  0  0  0  0  0  0
   -0.0089    1.4897   -0.2120 N   0  0  0  0  0  2  0  0  0  0  0  0
   -1.3095    1.4881    0.1778 N   0  0  0  0  0  0  0  0  0  0  0  0
   -0.6210   -1.4296   -0.1343 N   0  0  0  0  0  2  0  0  0  0  0  0
   -1.7993   -0.8556    0.2347 N   0  0  0  0  0  0  0  0  0  0  0  0
   -1.9932    2.5877   -0.2795 C   0  0  2  0  0  3  0  0  0  0  0  0
   -1.0590    3.3315   -0.9977 C   0  0  0  0  0  0  0  0  0  0  0  0
   -1.2379    4.2844   -1.5066 H   0  0  0  0  0  0  0  0  0  0  0  0
    0.1650    2.6120   -0.9359 C   0  0  0  0  0  0  0  0  0  0  0  0
    1.4772    2.9671   -1.5516 C   0  0  0  0  0  0  0  0  0  0  0  0
    2.2830    2.9445   -0.7918 H   0  0  0  0  0  0  0  0  0  0  0  0
    1.4307    3.9705   -2.0132 H   0  0  0  0  0  0  0  0  0  0  0  0
    1.7535    2.2196   -2.3226 H   0  0  0  0  0  0  0  0  0  0  0  0
   -3.4375    2.8398    0.0050 C   0  0  0  0  0  0  0  0  0  0  0  0
   -4.0940    2.0460   -0.4103 H   0  0  0  0  0  0  0  0  0  0  0  0
   -3.7441    3.7951   -0.4586 H   0  0  0  0  0  0  0  0  0  0  0  0
   -3.6481    2.9174    1.0926 H   0  0  0  0  0  0  0  0  0  0  0  0
   -2.8726   -1.6192   -0.1448 C   0  0  1  0  0  3  0  0  0  0  0  0
   -2.3380   -2.7376   -0.7828 C   0  0  0  0  0  0  0  0  0  0  0  0
   -2.9001   -3.5711   -1.2160 H   0  0  0  0  0  0  0  0  0  0  0  0
   -0.9284   -2.5867   -0.7575 C   0  0  0  0  0  0  0  0  0  0  0  0
    0.1151   -3.5067   -1.2935 C   0  0  0  0  0  0  0  0  0  0  0  0
    0.8731   -3.7258   -0.5154 H   0  0  0  0  0  0  0  0  0  0  0  0
    0.6602   -3.0253   -2.1306 H   0  0  0  0  0  0  0  0  0  0  0  0
   -0.3449   -4.4479   -1.6456 H   0  0  0  0  0  0  0  0  0  0  0  0
   -4.2896   -1.2375    0.1294 C   0  0  0  0  0  0  0  0  0  0  0  0
   -4.5015   -1.1537    1.2161 H   0  0  0  0  0  0  0  0  0  0  0  0
   -4.9656   -2.0097   -0.2803 H   0  0  0  0  0  0  0  0  0  0  0  0
   -4.5625   -0.2712   -0.3445 H   0  0  0  0  0  0  0  0  0  0  0  0
   -1.7915    0.3895    0.9910 C   0  0  1  0  0  0  0  0  0  0  0  0
   -2.8395    0.6122    1.2592 H   0  0  0  0  0  0  0  0  0  0  0  0
   -0.9572    0.2307    2.2838 C   0  0  0  0  0  0  0  0  0  0  0  0
   -0.9811    1.2150    2.8115 H   0  0  0  0  0  0  0  0  0  0  0  0
   -1.4896   -0.5114    2.9287 H   0  0  0  0  0  0  0  0  0  0  0  0
  1 32  1  0  0  0  0
  2  3  1  0  0  0  0
  3 30  1  0  0  0  0
  4  5  1  0  0  0  0
  5 30  1  0  0  0  0
  6 14  1  1  0  0  0
  6  3  1  0  0  0  0
  7  9  2  0  0  0  0
  7  6  1  0  0  0  0
  8  7  1  0  0  0  0
  9  2  1  0  0  0  0
 10  9  1  0  0  0  0
 10 11  1  0  0  0  0
 12 10  1  0  0  0  0
 13 10  1  0  0  0  0
 14 17  1  0  0  0  0
 15 14  1  0  0  0  0
 16 14  1  0  0  0  0
 18 26  1  1  0  0  0
 18  5  1  0  0  0  0
 19 21  2  0  0  0  0
 19 18  1  0  0  0  0
 20 19  1  0  0  0  0
 21  4  1  0  0  0  0
 22 21  1  0  0  0  0
 22 23  1  0  0  0  0
 24 22  1  0  0  0  0
 25 22  1  0  0  0  0
 26 27  1  0  0  0  0
 28 26  1  0  0  0  0
 29 26  1  0  0  0  0
 30 31  1  1  0  0  0
 30 32  1  0  0  0  0
 32 33  1  0  0  0  0
 32 34  1  0  0  0  0
M  END
