1,2,3
 OpenBabel05122313063D

 73 76  0  0  0  0  0  0  0  0999 V2000
   -2.4243   -0.2416    0.4371 O   0  5  0  0  0  0  0  0  0  0  0  0
   -1.1172    2.2892   -0.1964 N   0  0  0  0  0  2  0  0  0  0  0  0
    1.3636    1.2250    0.3546 N   0  0  0  0  0  0  0  0  0  0  0  0
    1.3855    1.2226    1.3999 H   0  0  0  0  0  0  0  0  0  0  0  0
   -3.4640    0.3547   -0.0767 C   0  0  0  0  0  0  0  0  0  0  0  0
   -3.5268    1.7524   -0.4552 C   0  0  0  0  0  0  0  0  0  0  0  0
   -4.7393    2.2483   -1.0165 C   0  0  0  0  0  3  0  0  0  0  0  0
   -4.7798    3.2886   -1.3678 H   0  0  0  0  0  0  0  0  0  0  0  0
   -5.8606    1.4488   -1.1847 C   0  0  0  0  0  0  0  0  0  0  0  0
   -6.7756    1.8622   -1.6325 H   0  0  0  0  0  0  0  0  0  0  0  0
   -5.8078    0.0991   -0.7843 C   0  0  0  0  0  0  0  0  0  0  0  0
   -6.7008   -0.5356   -0.8906 H   0  0  0  0  0  0  0  0  0  0  0  0
   -4.6488   -0.4672   -0.2469 C   0  0  0  0  0  0  0  0  0  0  0  0
   -4.6298   -1.9107    0.1086 C   0  0  0  0  0  0  0  0  0  0  0  0
   -5.2778   -2.8464   -0.7317 C   0  0  0  0  0  0  0  0  0  0  0  0
   -5.7373   -2.4976   -1.6692 H   0  0  0  0  0  0  0  0  0  0  0  0
   -5.3163   -4.2097   -0.4085 C   0  0  0  0  0  0  0  0  0  0  0  0
   -5.8192   -4.9168   -1.0862 H   0  0  0  0  0  0  0  0  0  0  0  0
   -4.7044   -4.6722    0.7667 C   0  0  0  0  0  0  0  0  0  0  0  0
   -4.7287   -5.7428    1.0216 H   0  0  0  0  0  0  0  0  0  0  0  0
   -4.0535   -3.7568    1.6093 C   0  0  0  0  0  0  0  0  0  0  0  0
   -3.5681   -4.1075    2.5332 H   0  0  0  0  0  0  0  0  0  0  0  0
   -4.0105   -2.3944    1.2852 C   0  0  0  0  0  0  0  0  0  0  0  0
   -3.4915   -1.6910    1.9481 H   0  0  0  0  0  0  0  0  0  0  0  0
   -2.4206    2.7029   -0.2926 C   0  0  0  0  0  0  0  0  0  0  0  0
   -2.6653    4.1073   -0.2469 C   0  0  0  0  0  0  0  0  0  0  0  0
   -3.7017    4.4636   -0.2275 H   0  0  0  0  0  0  0  0  0  0  0  0
   -1.6212    5.0209   -0.1828 C   0  0  0  0  0  0  0  0  0  0  0  0
   -1.8347    6.0989   -0.1323 H   0  0  0  0  0  0  0  0  0  0  0  0
   -0.2929    4.5563   -0.1670 C   0  0  0  0  0  0  0  0  0  0  0  0
    0.5617    5.2460   -0.1351 H   0  0  0  0  0  0  0  0  0  0  0  0
   -0.0803    3.1797   -0.1701 C   0  0  0  0  0  0  0  0  0  0  0  0
    1.3035    2.5830   -0.2362 C   0  0  0  0  0  0  0  0  0  0  0  0
    1.5878    2.4850   -1.3060 H   0  0  0  0  0  0  0  0  0  0  0  0
    2.0544    3.2564    0.2293 H   0  0  0  0  0  0  0  0  0  0  0  0
    2.5182    0.4439   -0.0747 C   0  0  0  0  0  0  0  0  0  0  0  0
    3.6827    0.4655    0.7374 C   0  0  0  0  0  0  0  0  0  0  0  0
    4.7723   -0.3374    0.3535 C   0  0  0  0  0  0  0  0  0  0  0  0
    5.6786   -0.3393    0.9799 H   0  0  0  0  0  0  0  0  0  0  0  0
    4.7527   -1.1301   -0.8032 C   0  0  0  0  0  0  0  0  0  0  0  0
    3.5988   -1.0907   -1.6031 C   0  0  0  0  0  0  0  0  0  0  0  0
    3.5611   -1.6956   -2.5225 H   0  0  0  0  0  0  0  0  0  0  0  0
    2.4725   -0.3192   -1.2706 C   0  0  0  0  0  0  0  0  0  0  0  0
    3.8433    1.3663    1.9614 C   0  0  0  0  0  0  0  0  0  0  0  0
    2.8724    1.8560    2.1817 H   0  0  0  0  0  0  0  0  0  0  0  0
    4.8550    2.4901    1.6641 C   0  0  0  0  0  0  0  0  0  0  0  0
    5.8674    2.0764    1.4772 H   0  0  0  0  0  0  0  0  0  0  0  0
    4.9294    3.1880    2.5231 H   0  0  0  0  0  0  0  0  0  0  0  0
    4.5687    3.0747    0.7656 H   0  0  0  0  0  0  0  0  0  0  0  0
    4.2192    0.5812    3.2274 C   0  0  0  0  0  0  0  0  0  0  0  0
    3.4248   -0.1530    3.4599 H   0  0  0  0  0  0  0  0  0  0  0  0
    4.3186    1.2710    4.0903 H   0  0  0  0  0  0  0  0  0  0  0  0
    5.1882    0.0537    3.1111 H   0  0  0  0  0  0  0  0  0  0  0  0
    5.9369   -2.0127   -1.1686 C   0  0  0  0  0  0  0  0  0  0  0  0
    6.7311   -1.8118   -0.4164 H   0  0  0  0  0  0  0  0  0  0  0  0
    5.5664   -3.5028   -1.0686 C   0  0  0  0  0  0  0  0  0  0  0  0
    5.1840   -3.7554   -0.0594 H   0  0  0  0  0  0  0  0  0  0  0  0
    6.4465   -4.1454   -1.2766 H   0  0  0  0  0  0  0  0  0  0  0  0
    4.7758   -3.7673   -1.8012 H   0  0  0  0  0  0  0  0  0  0  0  0
    6.5084   -1.6680   -2.5534 C   0  0  0  0  0  0  0  0  0  0  0  0
    5.7681   -1.8663   -3.3561 H   0  0  0  0  0  0  0  0  0  0  0  0
    7.4066   -2.2808   -2.7728 H   0  0  0  0  0  0  0  0  0  0  0  0
    6.7952   -0.5993   -2.6177 H   0  0  0  0  0  0  0  0  0  0  0  0
    1.2732   -0.3502   -2.2109 C   0  0  0  0  0  0  0  0  0  0  0  0
    0.4716    0.2811   -1.7675 H   0  0  0  0  0  0  0  0  0  0  0  0
    0.6840   -1.7658   -2.3284 C   0  0  0  0  0  0  0  0  0  0  0  0
    1.3983   -2.4666   -2.8086 H   0  0  0  0  0  0  0  0  0  0  0  0
   -0.2375   -1.7491   -2.9452 H   0  0  0  0  0  0  0  0  0  0  0  0
    0.4229   -2.1604   -1.3270 H   0  0  0  0  0  0  0  0  0  0  0  0
    1.6227    0.2463   -3.5846 C   0  0  0  0  0  0  0  0  0  0  0  0
    2.0146    1.2810   -3.4965 H   0  0  0  0  0  0  0  0  0  0  0  0
    0.7249    0.2738   -4.2354 H   0  0  0  0  0  0  0  0  0  0  0  0
    2.3963   -0.3550   -4.1061 H   0  0  0  0  0  0  0  0  0  0  0  0
  2 32  1  0  0  0  0
  3  4  1  0  0  0  0
  5  1  1  0  0  0  0
  6 25  2  0  0  0  0
  6  5  1  0  0  0  0
  7  6  1  0  0  0  0
  8  7  1  0  0  0  0
  9  7  1  0  0  0  0
  9 11  2  0  0  0  0
 10  9  1  0  0  0  0
 11 13  1  0  0  0  0
 12 11  1  0  0  0  0
 13  5  2  0  0  0  0
 13 14  1  0  0  0  0
 14 23  1  0  0  0  0
 15 17  1  0  0  0  0
 15 14  2  0  0  0  0
 16 15  1  0  0  0  0
 17 19  2  0  0  0  0
 18 17  1  0  0  0  0
 19 20  1  0  0  0  0
 19 21  1  0  0  0  0
 21 22  1  0  0  0  0
 23 21  2  0  0  0  0
 23 24  1  0  0  0  0
 25 26  1  0  0  0  0
 25  2  1  0  0  0  0
 26 27  1  0  0  0  0
 26 28  2  0  0  0  0
 28 30  1  0  0  0  0
 28 29  1  0  0  0  0
 30 31  1  0  0  0  0
 32 30  2  0  0  0  0
 33 32  1  0  0  0  0
 33 35  1  0  0  0  0
 33  3  1  0  0  0  0
 34 33  1  0  0  0  0
 36  3  1  0  0  0  0
 36 37  1  0  0  0  0
 37 44  1  0  0  0  0
 38 37  2  0  0  0  0
 38 39  1  0  0  0  0
 40 38  1  0  0  0  0
 41 43  1  0  0  0  0
 41 40  2  0  0  0  0
 42 41  1  0  0  0  0
 43 36  2  0  0  0  0
 44 45  1  0  0  0  0
 44 50  1  0  0  0  0
 46 44  1  0  0  0  0
 46 48  1  0  0  0  0
 47 46  1  0  0  0  0
 49 46  1  0  0  0  0
 50 51  1  0  0  0  0
 50 52  1  0  0  0  0
 53 50  1  0  0  0  0
 54 56  1  0  0  0  0
 54 40  1  0  0  0  0
 54 55  1  0  0  0  0
 56 57  1  0  0  0  0
 58 56  1  0  0  0  0
 59 56  1  0  0  0  0
 60 54  1  0  0  0  0
 61 60  1  0  0  0  0
 62 60  1  0  0  0  0
 63 60  1  0  0  0  0
 64 65  1  0  0  0  0
 64 43  1  0  0  0  0
 66 64  1  0  0  0  0
 66 69  1  0  0  0  0
 67 66  1  0  0  0  0
 68 66  1  0  0  0  0
 70 71  1  0  0  0  0
 70 64  1  0  0  0  0
 72 70  1  0  0  0  0
 73 70  1  0  0  0  0
M  CHG  1   1  -1
M  END
