1,4,5
 OpenBabel05122313063D

 38 40  0  0  0  0  0  0  0  0999 V2000
   -1.0243   -1.2691    1.1834 O   0  5  0  0  0  0  0  0  0  0  0  0
   -3.1695   -1.9692    1.6910 N   0  0  0  0  0  0  0  0  0  0  0  0
   -2.9179   -0.3845    0.0809 N   0  0  0  0  0  0  0  0  0  0  0  0
   -2.0444    0.3418   -0.5882 N   0  0  0  0  0  2  0  0  0  0  0  0
    0.0185    1.6242   -1.5999 N   0  0  0  0  0  2  0  0  0  0  0  0
   -4.0428    2.8578   -2.2297 N   0  0  0  0  0  0  0  0  0  0  0  0
   -2.2655   -1.2057    0.9900 C   0  0  0  0  0  0  0  0  0  0  0  0
   -2.9666   -2.9083    2.7071 C   0  0  0  0  0  0  0  0  0  0  0  0
   -1.6857   -3.2633    3.1912 C   0  0  0  0  0  0  0  0  0  0  0  0
   -0.8013   -2.7850    2.7550 H   0  0  0  0  0  0  0  0  0  0  0  0
   -1.5746   -4.2150    4.2135 C   0  0  0  0  0  0  0  0  0  0  0  0
   -0.5720   -4.4828    4.5812 H   0  0  0  0  0  0  0  0  0  0  0  0
   -2.7096   -4.8266    4.7695 C   0  0  0  0  0  0  0  0  0  0  0  0
   -2.6060   -5.5726    5.5712 H   0  0  0  0  0  0  0  0  0  0  0  0
   -3.9803   -4.4734    4.2869 C   0  0  0  0  0  0  0  0  0  0  0  0
   -4.8835   -4.9408    4.7079 H   0  0  0  0  0  0  0  0  0  0  0  0
   -4.1107   -3.5249    3.2670 C   0  0  0  0  0  0  0  0  0  0  0  0
   -5.1102   -3.2512    2.8919 H   0  0  0  0  0  0  0  0  0  0  0  0
   -2.3722    1.2587   -1.4942 C   0  0  0  0  0  0  0  0  0  0  0  0
   -3.7730    1.5811   -1.8645 C   0  0  0  0  0  0  0  0  0  0  0  0
   -4.7943    0.5974   -1.8215 C   0  0  0  0  0  0  0  0  0  0  0  0
   -4.5460   -0.4238   -1.5118 H   0  0  0  0  0  0  0  0  0  0  0  0
   -6.1022    0.9613   -2.1569 C   0  0  0  0  0  0  0  0  0  0  0  0
   -6.9057    0.2086   -2.1380 H   0  0  0  0  0  0  0  0  0  0  0  0
   -6.3757    2.2896   -2.5158 C   0  0  0  0  0  0  0  0  0  0  0  0
   -7.3918    2.6195   -2.7786 H   0  0  0  0  0  0  0  0  0  0  0  0
   -5.3013    3.1926   -2.5388 C   0  0  0  0  0  0  0  0  0  0  0  0
   -5.4676    4.2471   -2.8257 H   0  0  0  0  0  0  0  0  0  0  0  0
   -1.2058    1.9494   -2.0997 C   0  0  0  0  0  0  0  0  0  0  0  0
   -1.2953    2.8719   -3.1708 C   0  0  0  0  0  0  0  0  0  0  0  0
   -2.2849    3.1566   -3.5440 H   0  0  0  0  0  0  0  0  0  0  0  0
   -0.1282    3.4266   -3.7026 C   0  0  0  0  0  0  0  0  0  0  0  0
   -0.1966    4.1411   -4.5372 H   0  0  0  0  0  0  0  0  0  0  0  0
    1.1216    3.0717   -3.1701 C   0  0  0  0  0  0  0  0  0  0  0  0
    2.0607    3.4884   -3.5603 H   0  0  0  0  0  0  0  0  0  0  0  0
    1.1362    2.1586   -2.1098 C   0  0  0  0  0  0  0  0  0  0  0  0
    2.0822    1.8344   -1.6432 H   0  0  0  0  0  0  0  0  0  0  0  0
   -4.1361   -1.7821    1.4128 H   0  0  0  0  0  0  0  0  0  0  0  0
  2  8  1  0  0  0  0
  3  7  2  0  0  0  0
  4  3  1  0  0  0  0
  6 20  1  0  0  0  0
  7  1  1  0  0  0  0
  7  2  1  0  0  0  0
  8  9  2  0  0  0  0
  8 17  1  0  0  0  0
  9 11  1  0  0  0  0
 10  9  1  0  0  0  0
 11 12  1  0  0  0  0
 11 13  2  0  0  0  0
 13 14  1  0  0  0  0
 15 16  1  0  0  0  0
 15 13  1  0  0  0  0
 17 15  2  0  0  0  0
 18 17  1  0  0  0  0
 19  4  1  0  0  0  0
 20 21  2  0  0  0  0
 20 19  1  0  0  0  0
 21 22  1  0  0  0  0
 23 24  1  0  0  0  0
 23 21  1  0  0  0  0
 25 23  2  0  0  0  0
 26 25  1  0  0  0  0
 27 25  1  0  0  0  0
 27  6  2  0  0  0  0
 28 27  1  0  0  0  0
 29  5  1  0  0  0  0
 29 19  2  0  0  0  0
 30 29  1  0  0  0  0
 31 30  1  0  0  0  0
 32 30  2  0  0  0  0
 32 34  1  0  0  0  0
 33 32  1  0  0  0  0
 34 36  2  0  0  0  0
 35 34  1  0  0  0  0
 36 37  1  0  0  0  0
 36  5  1  0  0  0  0
 38  2  1  0  0  0  0
M  CHG  1   1  -1
M  END
