2,5,6
 OpenBabel05122313063D

 25 25  0  0  0  0  0  0  0  0999 V2000
   -1.5314   -2.7309    0.4926 S   0  0  0  0  0  0  0  0  0  0  0  0
   -0.4843   -1.7117    1.0221 O   0  0  0  0  0  1  0  0  0  0  0  0
   -1.1850   -4.1037    0.9256 O   0  0  0  0  0  1  0  0  0  0  0  0
   -2.9226   -2.2440    0.7110 O   0  0  0  0  0  1  0  0  0  0  0  0
    2.0917   -0.6124    0.3971 N   0  0  0  0  0  2  0  0  0  0  0  0
    0.5256   -1.0841   -1.8239 N   0  0  0  0  0  0  0  0  0  0  0  0
    2.7127   -0.7513    1.5774 C   0  0  0  0  0  3  0  0  0  0  0  0
    2.1310   -0.4825    2.4745 H   0  0  0  0  0  0  0  0  0  0  0  0
    4.0238   -1.2266    1.6908 C   0  0  0  0  0  0  0  0  0  0  0  0
    4.4963   -1.3205    2.6787 H   0  0  0  0  0  0  0  0  0  0  0  0
    4.7022   -1.5837    0.5165 C   0  0  0  0  0  0  0  0  0  0  0  0
    5.7336   -1.9645    0.5596 H   0  0  0  0  0  0  0  0  0  0  0  0
    4.0408   -1.4672   -0.7119 C   0  0  0  0  0  0  0  0  0  0  0  0
    4.5325   -1.7565   -1.6522 H   0  0  0  0  0  0  0  0  0  0  0  0
    2.7279   -0.9711   -0.7345 C   0  0  0  0  0  0  0  0  0  0  0  0
    1.9507   -0.7784   -2.0168 C   0  0  0  0  0  0  0  0  0  0  0  0
    2.4105   -1.3753   -2.8362 H   0  0  0  0  0  0  0  0  0  0  0  0
    2.0239    0.3022   -2.2678 H   0  0  0  0  0  0  0  0  0  0  0  0
    0.1871   -2.5180   -1.7478 C   0  0  0  0  0  0  0  0  0  0  0  0
    0.4011   -3.0275   -2.7168 H   0  0  0  0  0  0  0  0  0  0  0  0
    0.8411   -2.9889   -0.9841 H   0  0  0  0  0  0  0  0  0  0  0  0
   -1.2700   -2.7194   -1.3440 C   0  0  0  0  0  0  0  0  0  0  0  0
   -1.9321   -1.9385   -1.7675 H   0  0  0  0  0  0  0  0  0  0  0  0
   -1.6492   -3.7077   -1.6642 H   0  0  0  0  0  0  0  0  0  0  0  0
   -0.0066   -0.6369   -2.5807 H   0  0  0  0  0  0  0  0  0  0  0  0
  1  4  1  0  0  0  0
  1  3  1  0  0  0  0
  1  2  1  0  0  0  0
  5  7  1  0  0  0  0
  6 19  1  0  0  0  0
  7  9  1  0  0  0  0
  7  8  1  0  0  0  0
  9 10  1  0  0  0  0
 11 12  1  0  0  0  0
 11  9  2  0  0  0  0
 13 11  1  0  0  0  0
 14 13  1  0  0  0  0
 15 13  2  0  0  0  0
 15  5  1  0  0  0  0
 16  6  1  0  0  0  0
 16 15  1  0  0  0  0
 17 16  1  0  0  0  0
 18 16  1  0  0  0  0
 19 22  1  0  0  0  0
 19 21  1  0  0  0  0
 20 19  1  0  0  0  0
 22  1  1  0  0  0  0
 23 22  1  0  0  0  0
 24 22  1  0  0  0  0
 25  6  1  0  0  0  0
M  END
