3,4,6
 OpenBabel05122313063D

 46 48  0  0  1  0  0  0  0  0999 V2000
   -6.3626   -0.6329   -0.5015 Br  0  0  0  0  0  0  0  0  0  0  0  0
    3.4597    2.2762   -0.1678 S   0  0  0  0  0  0  0  0  0  0  0  0
   -0.6253   -2.2196    0.5850 O   0  5  0  0  0  0  0  0  0  0  0  0
    2.5815   -0.2754   -0.2801 N   0  0  0  0  0  2  0  0  0  0  0  0
    0.9551    1.3956    0.0247 N   0  0  0  0  0  0  0  0  0  0  0  0
    0.1110    0.3319   -0.0223 N   0  0  0  0  0  2  0  0  0  0  0  0
   -2.1976   -0.4629    0.0359 C   0  0  0  0  0  0  0  0  0  0  0  0
   -1.6428    2.0194    0.0380 C   0  0  0  0  0  0  0  0  0  0  0  0
   -3.5583   -0.1360   -0.2095 C   0  0  0  0  0  0  0  0  0  0  0  0
   -1.1903    0.5962    0.0151 C   0  0  1  0  0  3  0  0  0  0  0  0
    2.2151    1.0236   -0.1305 C   0  0  0  0  0  0  0  0  0  0  0  0
   -4.5524   -1.1131   -0.1562 C   0  0  0  0  0  0  0  0  0  0  0  0
   -1.3714    2.8777   -1.0476 C   0  0  0  0  0  0  0  0  0  0  0  0
   -1.8064    4.2085   -1.0205 C   0  0  0  0  0  0  0  0  0  0  0  0
    2.4149    3.7840   -0.0550 C   0  0  0  0  0  0  0  0  0  0  0  0
    3.9557   -0.6485   -0.3438 C   0  0  0  0  0  0  0  0  0  0  0  0
    4.4720   -1.2257   -1.5195 C   0  0  0  0  0  0  0  0  0  0  0  0
   -4.2335   -2.4501    0.1473 C   0  0  0  0  0  0  0  0  0  0  0  0
   -2.3518    2.5172    1.1495 C   0  0  0  0  0  0  0  0  0  0  0  0
   -2.5020    4.7031    0.0963 C   0  0  0  0  0  0  0  0  0  0  0  0
   -2.7720    3.8558    1.1813 C   0  0  0  0  0  0  0  0  0  0  0  0
    6.6519   -1.4306   -0.4571 C   0  0  0  0  0  0  0  0  0  0  0  0
   -2.9012   -2.7943    0.3846 C   0  0  0  0  0  0  0  0  0  0  0  0
   -1.8757   -1.8262    0.3257 C   0  0  0  0  0  0  0  0  0  0  0  0
    5.8172   -1.6155   -1.5712 C   0  0  0  0  0  0  0  0  0  0  0  0
    6.1331   -0.8634    0.7185 C   0  0  0  0  0  0  0  0  0  0  0  0
    4.7872   -0.4789    0.7827 C   0  0  0  0  0  0  0  0  0  0  0  0
    3.3194    5.0108   -0.0433 C   0  0  0  0  0  0  0  0  0  0  0  0
   -3.8250    0.8997   -0.4560 H   0  0  0  0  0  0  0  0  0  0  0  0
   -5.0237   -3.2128    0.1904 H   0  0  0  0  0  0  0  0  0  0  0  0
   -2.6154   -3.8295    0.6186 H   0  0  0  0  0  0  0  0  0  0  0  0
   -0.8181    2.4898   -1.9149 H   0  0  0  0  0  0  0  0  0  0  0  0
   -1.6000    4.8673   -1.8777 H   0  0  0  0  0  0  0  0  0  0  0  0
   -2.8384    5.7508    0.1171 H   0  0  0  0  0  0  0  0  0  0  0  0
   -3.3187    4.2357    2.0575 H   0  0  0  0  0  0  0  0  0  0  0  0
   -2.5724    1.8475    1.9948 H   0  0  0  0  0  0  0  0  0  0  0  0
    1.7175    3.7823   -0.9150 H   0  0  0  0  0  0  0  0  0  0  0  0
    1.7979    3.7023    0.8602 H   0  0  0  0  0  0  0  0  0  0  0  0
    3.9303    5.0809   -0.9660 H   0  0  0  0  0  0  0  0  0  0  0  0
    2.7015    5.9286    0.0240 H   0  0  0  0  0  0  0  0  0  0  0  0
    4.0100    5.0030    0.8241 H   0  0  0  0  0  0  0  0  0  0  0  0
    4.3578   -0.0552    1.7020 H   0  0  0  0  0  0  0  0  0  0  0  0
    6.7799   -0.7289    1.5988 H   0  0  0  0  0  0  0  0  0  0  0  0
    7.7076   -1.7377   -0.5017 H   0  0  0  0  0  0  0  0  0  0  0  0
    6.2166   -2.0681   -2.4913 H   0  0  0  0  0  0  0  0  0  0  0  0
    3.8031   -1.3685   -2.3807 H   0  0  0  0  0  0  0  0  0  0  0  0
  1 12  1  0  0  0  0
  2 11  1  0  0  0  0
  2 15  1  0  0  0  0
  4 11  1  0  0  0  0
  6  5  1  0  0  0  0
  7 24  1  0  0  0  0
  8 19  1  0  0  0  0
  9 12  1  0  0  0  0
  9  7  2  0  0  0  0
 10  6  1  1  0  0  0
 10  7  1  0  0  0  0
 10  8  1  0  0  0  0
 11  5  2  0  0  0  0
 12 18  2  0  0  0  0
 13 14  1  0  0  0  0
 13  8  2  0  0  0  0
 14 20  2  0  0  0  0
 15 28  1  0  0  0  0
 15 38  1  0  0  0  0
 16  4  1  0  0  0  0
 16 27  1  0  0  0  0
 17 16  2  0  0  0  0
 18 30  1  0  0  0  0
 18 23  1  0  0  0  0
 19 21  2  0  0  0  0
 19 36  1  0  0  0  0
 20 34  1  0  0  0  0
 20 21  1  0  0  0  0
 21 35  1  0  0  0  0
 22 26  1  0  0  0  0
 23 31  1  0  0  0  0
 24 23  2  0  0  0  0
 24  3  1  0  0  0  0
 25 17  1  0  0  0  0
 25 22  2  0  0  0  0
 26 27  2  0  0  0  0
 26 43  1  0  0  0  0
 27 42  1  0  0  0  0
 28 40  1  0  0  0  0
 28 41  1  0  0  0  0
 29  9  1  0  0  0  0
 32 13  1  0  0  0  0
 33 14  1  0  0  0  0
 37 15  1  0  0  0  0
 39 28  1  0  0  0  0
 44 22  1  0  0  0  0
 45 25  1  0  0  0  0
 46 17  1  0  0  0  0
M  CHG  1   3  -1
M  END
