3,4,5
 OpenBabel05122313063D

 43 45  0  0  1  0  0  0  0  0999 V2000
    6.4210   -0.9003   -0.2887 Br  0  0  0  0  0  0  0  0  0  0  0  0
   -3.3602    2.0789   -1.1475 S   0  0  0  0  0  0  0  0  0  0  0  0
    0.5929   -2.1719    0.7311 O   0  5  0  0  0  0  0  0  0  0  0  0
   -0.0463    0.1859   -0.4749 N   0  0  0  0  0  2  0  0  0  0  0  0
   -2.5190   -0.4417   -0.6472 N   0  0  0  0  0  2  0  0  0  0  0  0
   -0.8717    1.2381   -0.7129 N   0  0  0  0  0  0  0  0  0  0  0  0
    1.8651   -1.8513    0.4751 C   0  0  0  0  0  0  0  0  0  0  0  0
    1.7336    1.8308   -0.6959 C   0  0  0  0  0  0  0  0  0  0  0  0
    1.2558    0.4412   -0.4291 C   0  0  1  0  0  3  0  0  0  0  0  0
   -2.1327    0.8527   -0.8005 C   0  0  0  0  0  0  0  0  0  0  0  0
    3.6144   -0.3372   -0.3160 C   0  0  0  0  0  0  0  0  0  0  0  0
   -3.9044   -0.7813   -0.6131 C   0  0  0  0  0  0  0  0  0  0  0  0
   -4.4603   -1.5698   -1.6380 C   0  0  0  0  0  0  0  0  0  0  0  0
    2.3706    2.5633    0.3260 C   0  0  0  0  0  0  0  0  0  0  0  0
    2.6044    4.4690   -1.1650 C   0  0  0  0  0  0  0  0  0  0  0  0
    4.2168   -2.5086    0.6111 C   0  0  0  0  0  0  0  0  0  0  0  0
    2.8655   -2.7832    0.8272 C   0  0  0  0  0  0  0  0  0  0  0  0
    1.5403    2.4298   -1.9574 C   0  0  0  0  0  0  0  0  0  0  0  0
    2.2335   -0.5925   -0.0978 C   0  0  0  0  0  0  0  0  0  0  0  0
   -4.7071   -0.3569    0.4657 C   0  0  0  0  0  0  0  0  0  0  0  0
    4.5825   -1.2791    0.0303 C   0  0  0  0  0  0  0  0  0  0  0  0
    2.7965    3.8799    0.0937 C   0  0  0  0  0  0  0  0  0  0  0  0
    1.9819    3.7381   -2.1915 C   0  0  0  0  0  0  0  0  0  0  0  0
   -5.8163   -1.9195   -1.5895 C   0  0  0  0  0  0  0  0  0  0  0  0
   -6.0645   -0.7045    0.5011 C   0  0  0  0  0  0  0  0  0  0  0  0
   -6.6225   -1.4844   -0.5248 C   0  0  0  0  0  0  0  0  0  0  0  0
   -2.2922    3.5131   -1.4881 C   0  0  0  0  0  0  0  0  0  0  0  0
    3.9171    0.6130   -0.7745 H   0  0  0  0  0  0  0  0  0  0  0  0
    4.9870   -3.2434    0.8845 H   0  0  0  0  0  0  0  0  0  0  0  0
    2.5440   -3.7349    1.2734 H   0  0  0  0  0  0  0  0  0  0  0  0
    1.0417    1.8586   -2.7538 H   0  0  0  0  0  0  0  0  0  0  0  0
    1.8367    4.1938   -3.1828 H   0  0  0  0  0  0  0  0  0  0  0  0
    2.9445    5.4993   -1.3497 H   0  0  0  0  0  0  0  0  0  0  0  0
    3.2841    4.4460    0.9015 H   0  0  0  0  0  0  0  0  0  0  0  0
    2.5239    2.0976    1.3112 H   0  0  0  0  0  0  0  0  0  0  0  0
   -1.6123    3.3004   -2.3328 H   0  0  0  0  0  0  0  0  0  0  0  0
   -2.9874    4.3336   -1.7495 H   0  0  0  0  0  0  0  0  0  0  0  0
   -1.6977    3.7829   -0.5974 H   0  0  0  0  0  0  0  0  0  0  0  0
   -3.8138   -1.9046   -2.4622 H   0  0  0  0  0  0  0  0  0  0  0  0
   -6.2471   -2.5376   -2.3915 H   0  0  0  0  0  0  0  0  0  0  0  0
   -7.6871   -1.7606   -0.4905 H   0  0  0  0  0  0  0  0  0  0  0  0
   -6.6891   -0.3716    1.3440 H   0  0  0  0  0  0  0  0  0  0  0  0
   -4.2479    0.2303    1.2736 H   0  0  0  0  0  0  0  0  0  0  0  0
  1 21  1  0  0  0  0
  2 10  1  0  0  0  0
  5 12  1  0  0  0  0
  6  4  1  0  0  0  0
  7  3  1  0  0  0  0
  7 17  1  0  0  0  0
  8  9  1  0  0  0  0
  8 14  1  0  0  0  0
  9  4  1  1  0  0  0
  9 19  1  0  0  0  0
 10  6  2  0  0  0  0
 10  5  1  0  0  0  0
 11 19  1  0  0  0  0
 11 21  2  0  0  0  0
 12 20  1  0  0  0  0
 13 24  1  0  0  0  0
 13 12  2  0  0  0  0
 14 35  1  0  0  0  0
 15 22  1  0  0  0  0
 16 17  2  0  0  0  0
 16 29  1  0  0  0  0
 17 30  1  0  0  0  0
 18  8  2  0  0  0  0
 19  7  2  0  0  0  0
 20 25  2  0  0  0  0
 20 43  1  0  0  0  0
 21 16  1  0  0  0  0
 22 14  2  0  0  0  0
 22 34  1  0  0  0  0
 23 18  1  0  0  0  0
 23 15  2  0  0  0  0
 24 26  2  0  0  0  0
 25 42  1  0  0  0  0
 26 41  1  0  0  0  0
 26 25  1  0  0  0  0
 27  2  1  0  0  0  0
 27 38  1  0  0  0  0
 28 11  1  0  0  0  0
 31 18  1  0  0  0  0
 32 23  1  0  0  0  0
 33 15  1  0  0  0  0
 36 27  1  0  0  0  0
 37 27  1  0  0  0  0
 39 13  1  0  0  0  0
 40 24  1  0  0  0  0
M  CHG  1   3  -1
M  END
