40,41,42
 OpenBabel05122313063D

 42 42  0  0  1  0  0  0  0  0999 V2000
   -0.9523    2.4041   -0.1173 C   0  0  1  0  0  3  0  0  0  0  0  0
   -2.2977    2.7315    0.1212 C   0  0  0  0  0  0  0  0  0  0  0  0
   -2.5766    3.7851    0.2349 H   0  0  0  0  0  0  0  0  0  0  0  0
   -3.3240    1.7683    0.2499 C   0  0  0  0  0  0  0  0  0  0  0  0
   -4.1911   -0.4994    0.3293 C   0  0  0  0  0  0  0  0  0  0  0  0
   -4.6648   -0.6679   -0.6669 H   0  0  0  0  0  0  0  0  0  0  0  0
   -5.0008   -0.1462    1.0014 H   0  0  0  0  0  0  0  0  0  0  0  0
   -3.6141   -1.7848    0.8843 C   0  0  0  0  0  0  0  0  0  0  0  0
   -3.3585   -1.6316    1.9493 H   0  0  0  0  0  0  0  0  0  0  0  0
   -4.3327   -2.6308    0.8245 H   0  0  0  0  0  0  0  0  0  0  0  0
    0.1221    3.4365   -0.1891 C   0  0  0  0  0  0  0  0  0  0  0  0
    1.4655    3.0018   -0.1049 C   0  0  0  0  0  0  0  0  0  0  0  0
    1.6567    1.9236    0.0079 H   0  0  0  0  0  0  0  0  0  0  0  0
    2.5137    3.9281   -0.1567 C   0  0  0  0  0  0  0  0  0  0  0  0
    3.5540    3.5753   -0.0852 H   0  0  0  0  0  0  0  0  0  0  0  0
    2.2408    5.2988   -0.3006 C   0  0  0  0  0  0  0  0  0  0  0  0
    3.0655    6.0266   -0.3447 H   0  0  0  0  0  0  0  0  0  0  0  0
    0.9095    5.7381   -0.3932 C   0  0  0  0  0  0  0  0  0  0  0  0
    0.6894    6.8096   -0.5160 H   0  0  0  0  0  0  0  0  0  0  0  0
   -0.1433    4.8153   -0.3372 C   0  0  0  0  0  0  0  0  0  0  0  0
   -1.1790    5.1734   -0.4304 H   0  0  0  0  0  0  0  0  0  0  0  0
   -4.7401    2.2722    0.4277 C   0  0  0  0  0  0  0  0  0  0  0  0
   -5.4087    1.8928   -0.3728 H   0  0  0  0  0  0  0  0  0  0  0  0
   -4.7671    3.3757    0.4011 H   0  0  0  0  0  0  0  0  0  0  0  0
   -5.1746    1.9442    1.3956 H   0  0  0  0  0  0  0  0  0  0  0  0
   -2.5914   -2.5741   -1.2401 C   0  0  0  0  0  0  0  0  0  0  0  0
   -1.5820   -2.6613   -1.6932 H   0  0  0  0  0  0  0  0  0  0  0  0
   -3.1127   -1.7498   -1.7659 H   0  0  0  0  0  0  0  0  0  0  0  0
   -3.3710   -3.8779   -1.4003 C   0  0  0  0  0  0  0  0  0  0  0  0
   -2.8433   -4.7428   -0.9527 H   0  0  0  0  0  0  0  0  0  0  0  0
   -3.4774   -4.0897   -2.4825 H   0  0  0  0  0  0  0  0  0  0  0  0
   -4.3946   -3.8357   -0.9752 H   0  0  0  0  0  0  0  0  0  0  0  0
   -1.5655   -3.1246    0.9444 C   0  0  0  0  0  0  0  0  0  0  0  0
   -0.7680   -3.4845    0.2681 H   0  0  0  0  0  0  0  0  0  0  0  0
   -2.2376   -3.9851    1.1599 H   0  0  0  0  0  0  0  0  0  0  0  0
   -0.9523   -2.5963    2.2350 C   0  0  0  0  0  0  0  0  0  0  0  0
   -0.2437   -1.7693    2.0363 H   0  0  0  0  0  0  0  0  0  0  0  0
   -0.3884   -3.4160    2.7232 H   0  0  0  0  0  0  0  0  0  0  0  0
   -1.7104   -2.2473    2.9644 H   0  0  0  0  0  0  0  0  0  0  0  0
   -3.0874    0.4498    0.2301 N   0  0  0  0  0  2  0  0  0  0  0  0
   -2.3507   -2.1097    0.1699 N   0  0  0  0  0  0  0  0  0  0  0  0
   -0.5260    1.1973   -0.2783 O   0  0  0  0  0  1  0  0  0  0  0  0
  1 42  1  1  0  0  0
  1  2  1  0  0  0  0
  2  3  1  0  0  0  0
  2  4  2  0  0  0  0
  4 22  1  0  0  0  0
  5  8  1  0  0  0  0
  5  7  1  0  0  0  0
  6  5  1  0  0  0  0
  8  9  1  0  0  0  0
 10  8  1  0  0  0  0
 11  1  1  0  0  0  0
 11 12  1  0  0  0  0
 12 13  1  0  0  0  0
 14 12  2  0  0  0  0
 14 15  1  0  0  0  0
 16 14  1  0  0  0  0
 17 16  1  0  0  0  0
 18 20  1  0  0  0  0
 18 16  2  0  0  0  0
 19 18  1  0  0  0  0
 20 11  2  0  0  0  0
 21 20  1  0  0  0  0
 22 25  1  0  0  0  0
 23 22  1  0  0  0  0
 24 22  1  0  0  0  0
 26 41  1  0  0  0  0
 27 26  1  0  0  0  0
 28 26  1  0  0  0  0
 29 26  1  0  0  0  0
 29 32  1  0  0  0  0
 29 30  1  0  0  0  0
 31 29  1  0  0  0  0
 33 35  1  0  0  0  0
 33 36  1  0  0  0  0
 34 33  1  0  0  0  0
 36 38  1  0  0  0  0
 36 39  1  0  0  0  0
 37 36  1  0  0  0  0
 40  4  1  0  0  0  0
 40  5  1  0  0  0  0
 41  8  1  0  0  0  0
 41 33  1  0  0  0  0
M  END
