1,3,5
 OpenBabel05122313063D

 46 47  0  0  1  0  0  0  0  0999 V2000
   -0.1098   -1.3719    0.7803 N   0  0  0  0  0  2  0  0  0  0  0  0
   -0.8005   -0.2466    1.0837 N   0  0  0  0  0  0  0  0  0  0  0  0
    1.7481    0.7215    0.0507 N   0  0  0  0  0  2  0  0  0  0  0  0
    0.6792    1.4824    0.3819 N   0  0  0  0  0  0  0  0  0  0  0  0
   -0.1607   -0.2612   -1.8666 O   0  0  0  0  0  1  0  0  0  0  0  0
   -0.4432   -2.2944    1.6962 C   0  0  2  0  0  3  0  0  0  0  0  0
   -1.3689   -1.7340    2.6156 C   0  0  0  0  0  0  0  0  0  0  0  0
   -1.8276   -2.2218    3.4821 H   0  0  0  0  0  0  0  0  0  0  0  0
   -1.5705   -0.4141    2.2086 C   0  0  0  0  0  0  0  0  0  0  0  0
    0.1465   -3.6672    1.6471 C   0  0  0  0  0  0  0  0  0  0  0  0
   -0.6319   -4.4298    1.4388 H   0  0  0  0  0  0  0  0  0  0  0  0
    0.6220   -3.9359    2.6120 H   0  0  0  0  0  0  0  0  0  0  0  0
    0.9107   -3.7245    0.8488 H   0  0  0  0  0  0  0  0  0  0  0  0
   -2.4130    0.6656    2.8022 C   0  0  0  0  0  0  0  0  0  0  0  0
   -1.8207    1.5756    3.0338 H   0  0  0  0  0  0  0  0  0  0  0  0
   -2.8621    0.3090    3.7470 H   0  0  0  0  0  0  0  0  0  0  0  0
   -3.2434    0.9686    2.1306 H   0  0  0  0  0  0  0  0  0  0  0  0
    1.0465    2.7597    0.7194 C   0  0  1  0  0  3  0  0  0  0  0  0
    2.4380    2.7986    0.6028 C   0  0  0  0  0  0  0  0  0  0  0  0
    3.0815    3.6623    0.8008 H   0  0  0  0  0  0  0  0  0  0  0  0
    2.8347    1.5010    0.1837 C   0  0  0  0  0  0  0  0  0  0  0  0
    0.0626    3.8163    1.1006 C   0  0  0  0  0  0  0  0  0  0  0  0
   -0.6416    4.0448    0.2730 H   0  0  0  0  0  0  0  0  0  0  0  0
    0.5958    4.7501    1.3561 H   0  0  0  0  0  0  0  0  0  0  0  0
   -0.5447    3.5250    1.9837 H   0  0  0  0  0  0  0  0  0  0  0  0
    4.2005    0.9596   -0.0937 C   0  0  0  0  0  0  0  0  0  0  0  0
    4.8192    0.9318    0.8270 H   0  0  0  0  0  0  0  0  0  0  0  0
    4.7377    1.5875   -0.8329 H   0  0  0  0  0  0  0  0  0  0  0  0
    4.1270   -0.0694   -0.4943 H   0  0  0  0  0  0  0  0  0  0  0  0
   -0.6633    0.9265    0.2342 C   0  0  1  0  0  0  0  0  0  0  0  0
   -1.3627    1.6863    0.6198 H   0  0  0  0  0  0  0  0  0  0  0  0
   -0.9619    0.6697   -1.3003 C   0  0  2  0  0  0  0  0  0  0  0  0
   -0.7809    1.7130   -1.7137 H   0  0  0  0  0  0  0  0  0  0  0  0
   -2.4885    0.3994   -1.6018 C   0  0  0  0  0  0  0  0  0  0  0  0
   -2.8992   -1.0019   -1.1208 C   0  0  0  0  0  0  0  0  0  0  0  0
   -2.9842   -1.0688   -0.0173 H   0  0  0  0  0  0  0  0  0  0  0  0
   -2.1380   -1.7342   -1.4547 H   0  0  0  0  0  0  0  0  0  0  0  0
   -3.8818   -1.2921   -1.5470 H   0  0  0  0  0  0  0  0  0  0  0  0
   -2.6071    0.4502   -3.1371 C   0  0  0  0  0  0  0  0  0  0  0  0
   -3.6387    0.2035   -3.4630 H   0  0  0  0  0  0  0  0  0  0  0  0
   -1.8977   -0.2699   -3.5867 H   0  0  0  0  0  0  0  0  0  0  0  0
   -2.3558    1.4609   -3.5225 H   0  0  0  0  0  0  0  0  0  0  0  0
   -3.3913    1.4836   -0.9960 C   0  0  0  0  0  0  0  0  0  0  0  0
   -4.4236    1.4049   -1.3950 H   0  0  0  0  0  0  0  0  0  0  0  0
   -3.0207    2.5026   -1.2437 H   0  0  0  0  0  0  0  0  0  0  0  0
   -3.4743    1.4059    0.1083 H   0  0  0  0  0  0  0  0  0  0  0  0
  1  2  1  0  0  0  0
  1  6  1  0  0  0  0
  2  9  1  0  0  0  0
  3 21  1  0  0  0  0
  3  4  1  0  0  0  0
  4 18  1  0  0  0  0
  5 32  1  0  0  0  0
  6 10  1  1  0  0  0
  6  7  1  0  0  0  0
  7  8  1  0  0  0  0
  9  7  2  0  0  0  0
  9 14  1  0  0  0  0
 10 12  1  0  0  0  0
 11 10  1  0  0  0  0
 13 10  1  0  0  0  0
 14 15  1  0  0  0  0
 14 16  1  0  0  0  0
 17 14  1  0  0  0  0
 18 22  1  6  0  0  0
 19 18  1  0  0  0  0
 19 20  1  0  0  0  0
 21 19  2  0  0  0  0
 22 24  1  0  0  0  0
 22 25  1  0  0  0  0
 23 22  1  0  0  0  0
 26 21  1  0  0  0  0
 26 27  1  0  0  0  0
 28 26  1  0  0  0  0
 29 26  1  0  0  0  0
 30  4  1  0  0  0  0
 30 31  1  1  0  0  0
 30  2  1  0  0  0  0
 32 33  1  6  0  0  0
 32 30  1  0  0  0  0
 34 32  1  0  0  0  0
 34 35  1  0  0  0  0
 34 43  1  0  0  0  0
 35 36  1  0  0  0  0
 37 35  1  0  0  0  0
 38 35  1  0  0  0  0
 39 34  1  0  0  0  0
 40 39  1  0  0  0  0
 41 39  1  0  0  0  0
 42 39  1  0  0  0  0
 43 46  1  0  0  0  0
 44 43  1  0  0  0  0
 45 43  1  0  0  0  0
M  END
