2,5,6
 OpenBabel05122313063D

 27 28  0  0  0  0  0  0  0  0999 V2000
   -0.7583   -2.4068    3.1636 S   0  0  0  0  0  0  0  0  0  0  0  0
    0.0343    2.5848   -0.1577 O   0  5  0  0  0  0  0  0  0  0  0  0
    0.8876    4.3931    0.9238 O   0  0  0  0  0  0  0  0  0  0  0  0
   -0.0229    0.2090    2.8608 N   0  0  0  0  0  0  0  0  0  0  0  0
    0.0942    1.1212    1.9040 N   0  0  0  0  0  2  0  0  0  0  0  0
   -0.7825   -0.9765    0.9638 N   0  0  0  0  0  2  0  0  0  0  0  0
   -0.4862   -0.9120    2.2868 C   0  0  0  0  0  0  0  0  0  0  0  0
   -1.1935   -2.2409    0.5752 C   0  0  0  0  0  0  0  0  0  0  0  0
   -1.5254   -2.6801   -0.7233 C   0  0  0  0  0  0  0  0  0  0  0  0
   -1.9348   -4.0057   -0.9077 C   0  0  0  0  0  0  0  0  0  0  0  0
   -2.0214   -4.9057    0.1739 C   0  0  0  0  0  0  0  0  0  0  0  0
   -1.6828   -4.4932    1.4707 C   0  0  0  0  0  0  0  0  0  0  0  0
   -1.2664   -3.1690    1.6589 C   0  0  0  0  0  0  0  0  0  0  0  0
    0.5001    2.3840    2.1404 C   0  0  0  0  0  0  0  0  0  0  0  0
    0.8991    2.8798    3.4872 C   0  0  0  0  0  0  0  0  0  0  0  0
    0.4604    3.1234    0.9136 C   0  0  0  0  0  0  0  0  0  0  0  0
    0.8230    5.0906   -0.3268 C   0  0  0  0  0  0  0  0  0  0  0  0
   -1.4366   -1.9935   -1.5736 H   0  0  0  0  0  0  0  0  0  0  0  0
   -2.1890   -4.3494   -1.9215 H   0  0  0  0  0  0  0  0  0  0  0  0
   -2.3478   -5.9420    0.0027 H   0  0  0  0  0  0  0  0  0  0  0  0
   -1.7346   -5.1917    2.3185 H   0  0  0  0  0  0  0  0  0  0  0  0
    1.7671    2.3106    3.8831 H   0  0  0  0  0  0  0  0  0  0  0  0
    0.0747    2.7405    4.2175 H   0  0  0  0  0  0  0  0  0  0  0  0
    1.1632    3.9514    3.4362 H   0  0  0  0  0  0  0  0  0  0  0  0
    1.1896    6.1117   -0.1223 H   0  0  0  0  0  0  0  0  0  0  0  0
    1.4603    4.5955   -1.0867 H   0  0  0  0  0  0  0  0  0  0  0  0
   -0.2178    5.1208   -0.7075 H   0  0  0  0  0  0  0  0  0  0  0  0
  2 16  1  0  0  0  0
  5 14  1  0  0  0  0
  5  4  1  0  0  0  0
  6  7  1  0  0  0  0
  7  4  2  0  0  0  0
  7  1  1  0  0  0  0
  8  6  1  0  0  0  0
  8 13  1  0  0  0  0
  9  8  2  0  0  0  0
 10  9  1  0  0  0  0
 10 11  2  0  0  0  0
 11 12  1  0  0  0  0
 12 13  2  0  0  0  0
 12 21  1  0  0  0  0
 13  1  1  0  0  0  0
 14 15  1  0  0  0  0
 15 22  1  0  0  0  0
 15 23  1  0  0  0  0
 16  3  1  0  0  0  0
 16 14  2  0  0  0  0
 17 25  1  0  0  0  0
 17  3  1  0  0  0  0
 18  9  1  0  0  0  0
 19 10  1  0  0  0  0
 20 11  1  0  0  0  0
 24 15  1  0  0  0  0
 26 17  1  0  0  0  0
 27 17  1  0  0  0  0
M  CHG  1   2  -1
M  END
