10,11,14
 OpenBabel05122313063D

 24 24  0  0  1  0  0  0  0  0999 V2000
   -2.0608   -0.8942   -1.9332 C   0  0  0  0  0  3  0  0  0  0  0  0
   -2.4976   -1.5543   -3.0932 C   0  0  0  0  0  0  0  0  0  0  0  0
   -1.5950   -2.4081   -3.7446 C   0  0  0  0  0  0  0  0  0  0  0  0
   -0.3088   -2.5796   -3.2192 C   0  0  0  0  0  0  0  0  0  0  0  0
    0.0537   -1.8871   -2.0414 C   0  0  0  0  0  0  0  0  0  0  0  0
    1.3808   -2.0279   -1.4134 C   0  0  2  0  0  3  0  0  0  0  0  0
    2.5637   -0.5614    1.5025 C   0  0  0  0  0  0  0  0  0  0  0  0
    3.8315   -0.4762    2.3777 C   0  0  0  0  0  0  0  0  0  0  0  0
    2.4495   -2.8879   -2.0163 C   0  0  0  0  0  0  0  0  0  0  0  0
   -0.8312   -1.0532   -1.4327 N   0  0  0  0  0  2  0  0  0  0  0  0
    1.5389   -1.3492   -0.3007 N   0  0  0  0  0  2  0  0  0  0  0  0
    2.6824   -1.3498    0.3895 N   0  0  0  0  0  0  0  0  0  0  0  0
    4.8340   -1.2896    1.9345 N   0  0  0  0  0  0  0  0  0  0  0  0
    1.5466    0.0869    1.8537 O   0  5  0  0  0  0  0  0  0  0  0  0
    3.8931    0.2536    3.3577 O   0  0  0  0  0  0  0  0  0  0  0  0
   -2.7267   -0.2128   -1.3754 H   0  0  0  0  0  0  0  0  0  0  0  0
   -3.5189   -1.3985   -3.4682 H   0  0  0  0  0  0  0  0  0  0  0  0
   -1.8928   -2.9438   -4.6588 H   0  0  0  0  0  0  0  0  0  0  0  0
    0.4108   -3.2483   -3.7108 H   0  0  0  0  0  0  0  0  0  0  0  0
    2.1299   -3.9496   -2.0770 H   0  0  0  0  0  0  0  0  0  0  0  0
    2.7009   -2.5634   -3.0478 H   0  0  0  0  0  0  0  0  0  0  0  0
    3.3571   -2.8264   -1.3895 H   0  0  0  0  0  0  0  0  0  0  0  0
    4.6699   -1.8467    1.0931 H   0  0  0  0  0  0  0  0  0  0  0  0
    5.7189   -1.3100    2.4395 H   0  0  0  0  0  0  0  0  0  0  0  0
  1 10  1  0  0  0  0
  1 16  1  0  0  0  0
  2  1  1  0  0  0  0
  3  4  1  0  0  0  0
  3  2  2  0  0  0  0
  4  5  2  0  0  0  0
  5 10  1  0  0  0  0
  5  6  1  0  0  0  0
  6 11  1  1  0  0  0
  7 14  1  0  0  0  0
  7  8  1  0  0  0  0
  8 15  2  0  0  0  0
  9  6  1  0  0  0  0
  9 22  1  0  0  0  0
 11 12  1  0  0  0  0
 12  7  2  0  0  0  0
 13  8  1  0  0  0  0
 13 24  1  0  0  0  0
 17  2  1  0  0  0  0
 18  3  1  0  0  0  0
 19  4  1  0  0  0  0
 20  9  1  0  0  0  0
 21  9  1  0  0  0  0
 23 13  1  0  0  0  0
M  CHG  1  14  -1
M  END
