2,3,4
 OpenBabel05122313063D

 27 28  0  0  1  0  0  0  0  0999 V2000
    5.4517   -0.7674   -0.0890 Br  0  0  0  0  0  0  0  0  0  0  0  0
   -0.0682    1.7633   -0.2861 O   0  0  0  0  0  1  0  0  0  0  0  0
   -1.0484   -0.8831    0.5753 N   0  0  0  0  0  2  0  0  0  0  0  0
   -3.4772   -0.0428   -0.1867 N   0  0  0  0  0  2  0  0  0  0  0  0
    1.0923    1.1426   -0.2152 C   0  0  2  0  0  3  0  0  0  0  0  0
    2.2615    1.8904   -0.5364 C   0  0  0  0  0  0  0  0  0  0  0  0
    2.1184    2.9422   -0.8234 H   0  0  0  0  0  0  0  0  0  0  0  0
    3.5339    1.3361   -0.4920 C   0  0  0  0  0  0  0  0  0  0  0  0
    4.4122    1.9497   -0.7400 H   0  0  0  0  0  0  0  0  0  0  0  0
    3.7096   -0.0251   -0.1354 C   0  0  0  0  0  0  0  0  0  0  0  0
    2.6021   -0.8013    0.1683 C   0  0  0  0  0  0  0  0  0  0  0  0
    2.7336   -1.8608    0.4347 H   0  0  0  0  0  0  0  0  0  0  0  0
    1.2804   -0.2541    0.1506 C   0  0  0  0  0  0  0  0  0  0  0  0
    0.2231   -1.1807    0.4438 C   0  0  0  0  0  0  0  0  0  0  0  0
    0.5291   -2.2443    0.5468 H   0  0  0  0  0  0  0  0  0  0  0  0
   -2.0857   -1.8792    0.7074 C   0  0  0  0  0  0  0  0  0  0  0  0
   -2.2659   -2.1230    1.7822 H   0  0  0  0  0  0  0  0  0  0  0  0
   -1.8207   -2.8403    0.2130 H   0  0  0  0  0  0  0  0  0  0  0  0
   -3.3990   -1.3610    0.1277 C   0  0  1  0  0  3  0  0  0  0  0  0
   -4.5060   -2.2048   -0.0524 C   0  0  0  0  0  0  0  0  0  0  0  0
   -4.4260   -3.2714    0.2049 H   0  0  0  0  0  0  0  0  0  0  0  0
   -5.6972   -1.6750   -0.5624 C   0  0  0  0  0  0  0  0  0  0  0  0
   -6.5713   -2.3254   -0.7157 H   0  0  0  0  0  0  0  0  0  0  0  0
   -5.7632   -0.3075   -0.8782 C   0  0  0  0  0  0  0  0  0  0  0  0
   -6.6802    0.1454   -1.2804 H   0  0  0  0  0  0  0  0  0  0  0  0
   -4.6285    0.4774   -0.6729 C   0  0  0  0  0  0  0  0  0  0  0  0
   -4.6218    1.5552   -0.8985 H   0  0  0  0  0  0  0  0  0  0  0  0
  3 16  1  0  0  0  0
  4 19  1  0  0  0  0
  5  2  1  6  0  0  0
  5 13  1  0  0  0  0
  6  8  2  0  0  0  0
  6  5  1  0  0  0  0
  7  6  1  0  0  0  0
  8 10  1  0  0  0  0
  9  8  1  0  0  0  0
 10  1  1  0  0  0  0
 10 11  2  0  0  0  0
 11 12  1  0  0  0  0
 13 11  1  0  0  0  0
 13 14  2  0  0  0  0
 14 15  1  0  0  0  0
 14  3  1  0  0  0  0
 16 17  1  0  0  0  0
 18 16  1  0  0  0  0
 19 16  1  1  0  0  0
 20 19  1  0  0  0  0
 20 21  1  0  0  0  0
 22 20  2  0  0  0  0
 23 22  1  0  0  0  0
 24 26  2  0  0  0  0
 24 22  1  0  0  0  0
 25 24  1  0  0  0  0
 26  4  1  0  0  0  0
 27 26  1  0  0  0  0
M  END
