1,3,4
 OpenBabel05122313063D

 36 38  0  0  0  0  0  0  0  0999 V2000
   -0.8196    1.4196    0.4570 N   0  0  0  0  0  2  0  0  0  0  0  0
    3.4710    2.0339   -0.2671 N   0  0  0  0  0  0  0  0  0  0  0  0
    1.8733    0.4034   -0.2111 N   0  0  0  0  0  0  0  0  0  0  0  0
   -1.4348   -1.1386   -0.5761 O   0  5  0  0  0  0  0  0  0  0  0  0
   -2.6634   -0.7808   -0.4010 C   0  0  0  0  0  0  0  0  0  0  0  0
   -3.7034   -1.7385   -0.6403 C   0  0  0  0  0  0  0  0  0  0  0  0
   -3.3888   -2.7587   -0.9017 H   0  0  0  0  0  0  0  0  0  0  0  0
   -5.0394   -1.3735   -0.5874 C   0  0  0  0  0  0  0  0  0  0  0  0
   -5.8111   -2.1313   -0.7995 H   0  0  0  0  0  0  0  0  0  0  0  0
   -5.4489   -0.0505   -0.2513 C   0  0  0  0  0  0  0  0  0  0  0  0
   -4.4474    0.8844    0.0237 C   0  0  0  0  0  0  0  0  0  0  0  0
   -4.7310    1.9110    0.3090 H   0  0  0  0  0  0  0  0  0  0  0  0
   -3.0683    0.5595   -0.0309 C   0  0  0  0  0  0  0  0  0  0  0  0
   -2.1073    1.5702    0.3146 C   0  0  0  0  0  3  0  0  0  0  0  0
   -2.5264    2.5823    0.5094 H   0  0  0  0  0  0  0  0  0  0  0  0
   -0.0083    2.5737    0.8240 C   0  0  0  0  0  0  0  0  0  0  0  0
    0.4314    2.3790    1.8266 H   0  0  0  0  0  0  0  0  0  0  0  0
   -0.6510    3.4789    0.9032 H   0  0  0  0  0  0  0  0  0  0  0  0
    1.1199    2.8190   -0.1811 C   0  0  0  0  0  0  0  0  0  0  0  0
    0.6781    2.9279   -1.1969 H   0  0  0  0  0  0  0  0  0  0  0  0
    1.6267    3.7738    0.0543 H   0  0  0  0  0  0  0  0  0  0  0  0
    2.1722    1.7539   -0.1854 C   0  0  0  0  0  3  0  0  0  0  0  0
    4.0952    0.7949   -0.2887 C   0  0  0  0  0  0  0  0  0  0  0  0
    5.4606    0.4868   -0.3978 C   0  0  0  0  0  0  0  0  0  0  0  0
    6.2035    1.2928   -0.4903 H   0  0  0  0  0  0  0  0  0  0  0  0
    5.8318   -0.8719   -0.4174 C   0  0  0  0  0  0  0  0  0  0  0  0
    6.8955   -1.1434   -0.4940 H   0  0  0  0  0  0  0  0  0  0  0  0
    4.8588   -1.8890   -0.3582 C   0  0  0  0  0  0  0  0  0  0  0  0
    5.1762   -2.9423   -0.3828 H   0  0  0  0  0  0  0  0  0  0  0  0
    3.4834   -1.5944   -0.2648 C   0  0  0  0  0  0  0  0  0  0  0  0
    2.7260   -2.3852   -0.1830 H   0  0  0  0  0  0  0  0  0  0  0  0
    3.1125   -0.2410   -0.2296 C   0  0  0  0  0  0  0  0  0  0  0  0
   -6.9103    0.3013   -0.1818 C   0  0  0  0  0  0  0  0  0  0  0  0
   -7.4437   -0.3350    0.5556 H   0  0  0  0  0  0  0  0  0  0  0  0
   -7.4094    0.1380   -1.1604 H   0  0  0  0  0  0  0  0  0  0  0  0
   -7.0655    1.3585    0.1063 H   0  0  0  0  0  0  0  0  0  0  0  0
  1 16  1  0  0  0  0
  2 22  1  0  0  0  0
  3 22  1  0  0  0  0
  4  5  1  0  0  0  0
  5 13  1  0  0  0  0
  6  8  1  0  0  0  0
  6  5  2  0  0  0  0
  7  6  1  0  0  0  0
  8 10  2  0  0  0  0
  9  8  1  0  0  0  0
 10 33  1  0  0  0  0
 10 11  1  0  0  0  0
 11 12  1  0  0  0  0
 13 11  2  0  0  0  0
 13 14  1  0  0  0  0
 14  1  1  0  0  0  0
 14 15  1  0  0  0  0
 16 18  1  0  0  0  0
 16 17  1  0  0  0  0
 19 21  1  0  0  0  0
 19 16  1  0  0  0  0
 20 19  1  0  0  0  0
 22 19  1  0  0  0  0
 23  2  2  0  0  0  0
 23 32  1  0  0  0  0
 24 23  1  0  0  0  0
 25 24  1  0  0  0  0
 26 24  2  0  0  0  0
 26 28  1  0  0  0  0
 27 26  1  0  0  0  0
 28 30  2  0  0  0  0
 29 28  1  0  0  0  0
 30 32  1  0  0  0  0
 30 31  1  0  0  0  0
 32  3  2  0  0  0  0
 33 36  1  0  0  0  0
 33 34  1  0  0  0  0
 35 33  1  0  0  0  0
M  CHG  1   4  -1
M  END
