1,3,4
 OpenBabel05122313063D

 31 32  0  0  1  0  0  0  0  0999 V2000
   -1.2167   -0.8232    0.1609 O   0  5  0  0  0  0  0  0  0  0  0  0
   -3.6334   -1.4900    0.8478 O   0  0  0  0  0  0  0  0  0  0  0  0
    2.4173   -0.0890    0.5080 N   0  0  0  0  0  2  0  0  0  0  0  0
    0.5502    1.2447   -0.8081 N   0  0  0  0  0  2  0  0  0  0  0  0
   -1.8463    1.4829   -0.3501 C   0  0  0  0  0  0  0  0  0  0  0  0
   -2.0971    0.1169    0.0690 C   0  0  0  0  0  0  0  0  0  0  0  0
   -3.4661   -0.2021    0.4501 C   0  0  0  0  0  0  0  0  0  0  0  0
   -4.4781    0.7526    0.3813 C   0  0  0  0  0  0  0  0  0  0  0  0
   -5.5074    0.4833    0.6560 H   0  0  0  0  0  0  0  0  0  0  0  0
   -4.2015    2.0836   -0.0345 C   0  0  0  0  0  0  0  0  0  0  0  0
   -5.0172    2.8199   -0.0711 H   0  0  0  0  0  0  0  0  0  0  0  0
   -2.9124    2.4395   -0.3793 C   0  0  0  0  0  0  0  0  0  0  0  0
   -2.6807    3.4705   -0.6907 H   0  0  0  0  0  0  0  0  0  0  0  0
   -0.5292    1.9663   -0.6403 C   0  0  0  0  0  3  0  0  0  0  0  0
   -0.4292    3.0749   -0.6998 H   0  0  0  0  0  0  0  0  0  0  0  0
   -4.9300   -1.9052    1.2149 C   0  0  0  0  0  0  0  0  0  0  0  0
   -5.3242   -1.3275    2.0830 H   0  0  0  0  0  0  0  0  0  0  0  0
   -4.8513   -2.9714    1.4987 H   0  0  0  0  0  0  0  0  0  0  0  0
   -5.6536   -1.8080    0.3728 H   0  0  0  0  0  0  0  0  0  0  0  0
    2.8016    1.1367    0.1026 C   0  0  1  0  0  3  0  0  0  0  0  0
    4.0424    1.6738    0.4852 C   0  0  0  0  0  0  0  0  0  0  0  0
    4.3363    2.6785    0.1455 H   0  0  0  0  0  0  0  0  0  0  0  0
    4.8896    0.9077    1.2955 C   0  0  0  0  0  0  0  0  0  0  0  0
    5.8635    1.3087    1.6146 H   0  0  0  0  0  0  0  0  0  0  0  0
    4.4879   -0.3808    1.6843 C   0  0  0  0  0  0  0  0  0  0  0  0
    5.1330   -1.0192    2.3044 H   0  0  0  0  0  0  0  0  0  0  0  0
    3.2402   -0.8447    1.2559 C   0  0  0  0  0  0  0  0  0  0  0  0
    2.8797   -1.8597    1.4886 H   0  0  0  0  0  0  0  0  0  0  0  0
    1.8524    1.8612   -0.8477 C   0  0  0  0  0  0  0  0  0  0  0  0
    1.8253    2.9488   -0.6064 H   0  0  0  0  0  0  0  0  0  0  0  0
    2.2889    1.7689   -1.8716 H   0  0  0  0  0  0  0  0  0  0  0  0
  2 16  1  0  0  0  0
  3 27  1  0  0  0  0
  4 14  1  0  0  0  0
  5  6  1  0  0  0  0
  6  1  1  0  0  0  0
  6  7  2  0  0  0  0
  7  2  1  0  0  0  0
  8  7  1  0  0  0  0
  8  9  1  0  0  0  0
 10  8  2  0  0  0  0
 11 10  1  0  0  0  0
 12  5  2  0  0  0  0
 12 10  1  0  0  0  0
 13 12  1  0  0  0  0
 14  5  1  0  0  0  0
 15 14  1  0  0  0  0
 16 18  1  0  0  0  0
 16 17  1  0  0  0  0
 19 16  1  0  0  0  0
 20 29  1  6  0  0  0
 20 21  1  0  0  0  0
 20  3  1  0  0  0  0
 21 23  2  0  0  0  0
 22 21  1  0  0  0  0
 23 24  1  0  0  0  0
 23 25  1  0  0  0  0
 25 26  1  0  0  0  0
 27 28  1  0  0  0  0
 27 25  2  0  0  0  0
 29  4  1  0  0  0  0
 29 30  1  0  0  0  0
 31 29  1  0  0  0  0
M  CHG  1   1  -1
M  END
