1,4,8
 OpenBabel05122313063D

 35 36  0  0  1  0  0  0  0  0999 V2000
   -0.9859   -0.9777   -0.9773 O   0  5  0  0  0  0  0  0  0  0  0  0
   -5.4628   -2.5068   -1.2275 O   0  0  0  0  0  0  0  0  0  0  0  0
   -5.3885   -2.0548   -2.0896 H   0  0  0  0  0  0  0  0  0  0  0  0
    1.7197    0.8559    1.1206 N   0  0  0  0  0  2  0  0  0  0  0  0
    3.1023    0.1528    2.9739 N   0  0  0  0  0  0  0  0  0  0  0  0
    1.4467   -1.2139    2.1300 N   0  0  0  0  0  0  0  0  0  0  0  0
    1.5813   -1.7870    2.9685 H   0  0  0  0  0  0  0  0  0  0  0  0
    0.2918   -1.2926    1.3972 N   0  0  0  0  0  2  0  0  0  0  0  0
    2.1329   -0.0255    2.0779 C   0  0  1  0  0  3  0  0  0  0  0  0
    2.2482    2.1101    1.1933 C   0  0  0  0  0  0  0  0  0  0  0  0
    3.2676    2.3757    2.1223 C   0  0  0  0  0  0  0  0  0  0  0  0
    3.7092    1.3523    2.9850 C   0  0  0  0  0  0  0  0  0  0  0  0
   -0.6739   -2.1268    1.7423 C   0  0  2  0  0  3  0  0  0  0  0  0
   -0.4629   -2.9835    2.9655 C   0  0  0  0  0  0  0  0  0  0  0  0
   -1.8788   -2.2068    0.9455 C   0  0  0  0  0  0  0  0  0  0  0  0
   -1.9733   -1.5918   -0.3641 C   0  0  0  0  0  0  0  0  0  0  0  0
   -3.1894   -1.7028   -1.0845 C   0  0  0  0  0  0  0  0  0  0  0  0
   -4.2902   -2.3932   -0.5665 C   0  0  0  0  0  0  0  0  0  0  0  0
   -4.2095   -2.9940    0.7164 C   0  0  0  0  0  0  0  0  0  0  0  0
   -3.0300   -2.8921    1.4345 C   0  0  0  0  0  0  0  0  0  0  0  0
    1.7261    3.1997    0.3115 C   0  0  0  0  0  0  0  0  0  0  0  0
    4.8259    1.5487    3.9651 C   0  0  0  0  0  0  0  0  0  0  0  0
    3.7055    3.3815    2.1711 H   0  0  0  0  0  0  0  0  0  0  0  0
   -0.3634   -2.3612    3.8807 H   0  0  0  0  0  0  0  0  0  0  0  0
    0.4617   -3.5928    2.8656 H   0  0  0  0  0  0  0  0  0  0  0  0
   -1.2880   -3.6932    3.1285 H   0  0  0  0  0  0  0  0  0  0  0  0
   -3.2327   -1.2120   -2.0686 H   0  0  0  0  0  0  0  0  0  0  0  0
   -5.0879   -3.5147    1.1200 H   0  0  0  0  0  0  0  0  0  0  0  0
   -3.0057   -3.3418    2.4363 H   0  0  0  0  0  0  0  0  0  0  0  0
    0.6212    3.2369    0.3679 H   0  0  0  0  0  0  0  0  0  0  0  0
    1.9962    3.0213   -0.7484 H   0  0  0  0  0  0  0  0  0  0  0  0
    2.1415    4.1740    0.6243 H   0  0  0  0  0  0  0  0  0  0  0  0
    5.2719    2.5570    3.8948 H   0  0  0  0  0  0  0  0  0  0  0  0
    5.6150    0.7879    3.7963 H   0  0  0  0  0  0  0  0  0  0  0  0
    4.4542    1.3883    4.9977 H   0  0  0  0  0  0  0  0  0  0  0  0
  1 16  1  0  0  0  0
  2 18  1  0  0  0  0
  3  2  1  0  0  0  0
  4 10  1  0  0  0  0
  4  9  1  0  0  0  0
  5 12  2  0  0  0  0
  6  7  1  0  0  0  0
  8  6  1  0  0  0  0
  9  6  1  1  0  0  0
  9  5  1  0  0  0  0
 10 11  2  0  0  0  0
 11 23  1  0  0  0  0
 11 12  1  0  0  0  0
 12 22  1  0  0  0  0
 13  8  1  6  0  0  0
 13 14  1  0  0  0  0
 14 26  1  0  0  0  0
 14 24  1  0  0  0  0
 15 20  1  0  0  0  0
 15 13  1  0  0  0  0
 16 15  2  0  0  0  0
 17 18  2  0  0  0  0
 17 16  1  0  0  0  0
 18 19  1  0  0  0  0
 19 28  1  0  0  0  0
 19 20  2  0  0  0  0
 20 29  1  0  0  0  0
 21 30  1  0  0  0  0
 21 32  1  0  0  0  0
 21 10  1  0  0  0  0
 22 35  1  0  0  0  0
 25 14  1  0  0  0  0
 27 17  1  0  0  0  0
 31 21  1  0  0  0  0
 33 22  1  0  0  0  0
 34 22  1  0  0  0  0
M  CHG  1   1  -1
M  END
