1,2,4
 OpenBabel05122313063D

 43 44  0  0  0  0  0  0  0  0999 V2000
   -2.8870    1.3346   -0.1590 N   0  0  0  0  0  2  0  0  0  0  0  0
   -0.2331    1.1145   -0.5079 N   0  0  0  0  0  0  0  0  0  0  0  0
    3.4907    0.9281    0.0719 N   0  0  0  0  0  0  0  0  0  0  0  0
   -3.4961   -1.2936   -0.5803 O   0  5  0  0  0  0  0  0  0  0  0  0
    4.9689    0.0664    1.9748 O   0  0  0  0  0  0  0  0  0  0  0  0
    4.1806    0.4760    1.4518 H   0  0  0  0  0  0  0  0  0  0  0  0
   -5.0604    0.3036    0.3050 C   0  0  0  0  0  0  0  0  0  0  0  0
   -4.6843   -1.0217   -0.1250 C   0  0  0  0  0  0  0  0  0  0  0  0
   -5.6758   -2.0454   -0.0687 C   0  0  0  0  0  0  0  0  0  0  0  0
   -5.3833   -3.0504   -0.4044 H   0  0  0  0  0  0  0  0  0  0  0  0
   -6.9548   -1.7736    0.4056 C   0  0  0  0  0  0  0  0  0  0  0  0
   -7.6961   -2.5871    0.4479 H   0  0  0  0  0  0  0  0  0  0  0  0
   -7.3224   -0.4732    0.8348 C   0  0  0  0  0  0  0  0  0  0  0  0
   -8.3385   -0.2772    1.2055 H   0  0  0  0  0  0  0  0  0  0  0  0
   -6.3822    0.5465    0.7751 C   0  0  0  0  0  0  0  0  0  0  0  0
   -6.6468    1.5678    1.0944 H   0  0  0  0  0  0  0  0  0  0  0  0
   -4.1402    1.3959    0.2163 C   0  0  0  0  0  3  0  0  0  0  0  0
   -4.5514    2.3935    0.4876 H   0  0  0  0  0  0  0  0  0  0  0  0
   -2.1237    2.5737   -0.2282 C   0  0  0  0  0  0  0  0  0  0  0  0
   -2.5881    3.3887    0.3696 H   0  0  0  0  0  0  0  0  0  0  0  0
   -2.0936    2.9257   -1.2868 H   0  0  0  0  0  0  0  0  0  0  0  0
   -0.7029    2.2867    0.2409 C   0  0  0  0  0  0  0  0  0  0  0  0
   -0.0571    3.1826    0.1070 H   0  0  0  0  0  0  0  0  0  0  0  0
   -0.7010    2.0143    1.3166 H   0  0  0  0  0  0  0  0  0  0  0  0
    1.0813    0.5670   -0.1220 C   0  0  0  0  0  0  0  0  0  0  0  0
    1.2090   -0.3743   -0.6912 H   0  0  0  0  0  0  0  0  0  0  0  0
    1.0311    0.2871    0.9483 H   0  0  0  0  0  0  0  0  0  0  0  0
    2.2601    1.5159   -0.3966 C   0  0  0  0  0  0  0  0  0  0  0  0
    2.3036    1.7526   -1.4897 H   0  0  0  0  0  0  0  0  0  0  0  0
    2.1060    2.4767    0.1436 H   0  0  0  0  0  0  0  0  0  0  0  0
    4.4075    0.5662   -0.7736 C   0  0  0  0  0  0  0  0  0  0  0  0
    4.2700    0.7285   -1.8696 H   0  0  0  0  0  0  0  0  0  0  0  0
    5.6435   -0.0520   -0.3411 C   0  0  0  0  0  0  0  0  0  0  0  0
    5.8718   -0.2789    1.0601 C   0  0  0  0  0  0  0  0  0  0  0  0
    7.0871   -0.8823    1.4622 C   0  0  0  0  0  0  0  0  0  0  0  0
    7.2484   -1.0514    2.5365 H   0  0  0  0  0  0  0  0  0  0  0  0
    8.0408   -1.2484    0.5112 C   0  0  0  0  0  0  0  0  0  0  0  0
    8.9789   -1.7179    0.8457 H   0  0  0  0  0  0  0  0  0  0  0  0
    7.8239   -1.0290   -0.8676 C   0  0  0  0  0  0  0  0  0  0  0  0
    8.5848   -1.3246   -1.6039 H   0  0  0  0  0  0  0  0  0  0  0  0
    6.6323   -0.4351   -1.2797 C   0  0  0  0  0  0  0  0  0  0  0  0
    6.4388   -0.2548   -2.3497 H   0  0  0  0  0  0  0  0  0  0  0  0
   -0.2202    1.3215   -1.5185 H   0  0  0  0  0  0  0  0  0  0  0  0
  1 17  1  0  0  0  0
  2 25  1  0  0  0  0
  2 22  1  0  0  0  0
  4  8  1  0  0  0  0
  6  5  1  0  0  0  0
  7 15  1  0  0  0  0
  8  9  1  0  0  0  0
  8  7  2  0  0  0  0
  9 11  2  0  0  0  0
 10  9  1  0  0  0  0
 11 12  1  0  0  0  0
 11 13  1  0  0  0  0
 13 14  1  0  0  0  0
 15 13  2  0  0  0  0
 15 16  1  0  0  0  0
 17  7  1  0  0  0  0
 17 18  1  0  0  0  0
 19  1  1  0  0  0  0
 19 22  1  0  0  0  0
 19 20  1  0  0  0  0
 21 19  1  0  0  0  0
 22 24  1  0  0  0  0
 23 22  1  0  0  0  0
 25 27  1  0  0  0  0
 26 25  1  0  0  0  0
 28 25  1  0  0  0  0
 28  3  1  0  0  0  0
 28 30  1  0  0  0  0
 29 28  1  0  0  0  0
 31 33  1  0  0  0  0
 31  3  2  0  0  0  0
 32 31  1  0  0  0  0
 33 34  1  0  0  0  0
 34 35  2  0  0  0  0
 34  5  1  0  0  0  0
 35 36  1  0  0  0  0
 37 38  1  0  0  0  0
 37 35  1  0  0  0  0
 39 37  2  0  0  0  0
 40 39  1  0  0  0  0
 41 39  1  0  0  0  0
 41 33  2  0  0  0  0
 42 41  1  0  0  0  0
 43  2  1  0  0  0  0
M  CHG  1   4  -1
M  END
