1,2,3
 OpenBabel05122313063D

 31 32  0  0  1  0  0  0  0  0999 V2000
    0.7924   -1.6677   -0.0010 N   0  0  0  0  0  2  0  0  0  0  0  0
    2.7901   -0.1003    0.0011 N   0  0  0  0  0  2  0  0  0  0  0  0
   -0.8887    0.4752    0.0018 O   0  5  0  0  0  0  0  0  0  0  0  0
   -5.5675   -0.4057    0.0001 O   0  0  0  0  0  0  0  0  0  0  0  0
   -1.6371   -1.8325    0.0000 C   0  0  0  0  0  0  0  0  0  0  0  0
   -1.8471   -0.4017    0.0008 C   0  0  0  0  0  0  0  0  0  0  0  0
   -3.1869    0.0884    0.0007 C   0  0  0  0  0  0  0  0  0  0  0  0
   -3.3007    1.1795    0.0012 H   0  0  0  0  0  0  0  0  0  0  0  0
   -4.2693   -0.7931    0.0002 C   0  0  0  0  0  0  0  0  0  0  0  0
   -4.0617   -2.2081   -0.0003 C   0  0  0  0  0  0  0  0  0  0  0  0
   -4.9411   -2.8661   -0.0007 H   0  0  0  0  0  0  0  0  0  0  0  0
   -2.7727   -2.6996   -0.0004 C   0  0  0  0  0  3  0  0  0  0  0  0
   -2.6018   -3.7881   -0.0010 H   0  0  0  0  0  0  0  0  0  0  0  0
   -0.3255   -2.3703   -0.0008 C   0  0  0  0  0  0  0  0  0  0  0  0
   -0.2356   -3.4758   -0.0017 H   0  0  0  0  0  0  0  0  0  0  0  0
    2.0602   -2.3908   -0.0030 C   0  0  0  0  0  0  0  0  0  0  0  0
    2.1436   -3.0510   -0.8969 H   0  0  0  0  0  0  0  0  0  0  0  0
    2.1444   -3.0546    0.8882 H   0  0  0  0  0  0  0  0  0  0  0  0
    3.1880   -1.4019   -0.0015 C   0  0  1  0  0  3  0  0  0  0  0  0
    4.5427   -1.7556   -0.0027 C   0  0  0  0  0  0  0  0  0  0  0  0
    4.8253   -2.8186   -0.0049 H   0  0  0  0  0  0  0  0  0  0  0  0
    5.5137   -0.7457   -0.0010 C   0  0  0  0  0  0  0  0  0  0  0  0
    6.5838   -0.9999   -0.0019 H   0  0  0  0  0  0  0  0  0  0  0  0
    5.0917    0.5939    0.0018 C   0  0  0  0  0  0  0  0  0  0  0  0
    5.8154    1.4214    0.0033 H   0  0  0  0  0  0  0  0  0  0  0  0
    3.7265    0.8818    0.0028 C   0  0  0  0  0  0  0  0  0  0  0  0
    3.3104    1.9014    0.0049 H   0  0  0  0  0  0  0  0  0  0  0  0
   -5.8557    0.9837    0.0003 C   0  0  0  0  0  0  0  0  0  0  0  0
   -5.4464    1.4866    0.9038 H   0  0  0  0  0  0  0  0  0  0  0  0
   -6.9575    1.0734   -0.0001 H   0  0  0  0  0  0  0  0  0  0  0  0
   -5.4457    1.4870   -0.9026 H   0  0  0  0  0  0  0  0  0  0  0  0
  1 14  1  0  0  0  0
  2 26  1  0  0  0  0
  4  9  1  0  0  0  0
  4 28  1  0  0  0  0
  5  6  1  0  0  0  0
  6  3  1  0  0  0  0
  7  6  2  0  0  0  0
  7  8  1  0  0  0  0
  9  7  1  0  0  0  0
 10  9  2  0  0  0  0
 11 10  1  0  0  0  0
 12 10  1  0  0  0  0
 12  5  1  0  0  0  0
 13 12  1  0  0  0  0
 14  5  2  0  0  0  0
 15 14  1  0  0  0  0
 16  1  1  0  0  0  0
 16 18  1  0  0  0  0
 17 16  1  0  0  0  0
 19 16  1  6  0  0  0
 19  2  1  0  0  0  0
 20 19  1  0  0  0  0
 20 22  2  0  0  0  0
 21 20  1  0  0  0  0
 22 24  1  0  0  0  0
 23 22  1  0  0  0  0
 24 26  2  0  0  0  0
 24 25  1  0  0  0  0
 26 27  1  0  0  0  0
 28 29  1  0  0  0  0
 30 28  1  0  0  0  0
 31 28  1  0  0  0  0
M  CHG  1   3  -1
M  END
