1,3,4
 OpenBabel05122313063D

 37 38  0  0  0  0  0  0  0  0999 V2000
    1.4573    0.5061    0.0619 O   0  5  0  0  0  0  0  0  0  0  0  0
   -4.9537    0.2213    0.1273 O   0  0  0  0  0  0  0  0  0  0  0  0
    0.1609   -1.8699    0.0879 N   0  0  0  0  0  2  0  0  0  0  0  0
   -2.1888   -0.6524   -0.1573 N   0  0  0  0  0  0  0  0  0  0  0  0
    2.5842   -1.6435    0.0165 C   0  0  0  0  0  0  0  0  0  0  0  0
    2.5490   -0.2024    0.0113 C   0  0  0  0  0  0  0  0  0  0  0  0
    3.7937    0.5234   -0.0412 C   0  0  0  0  0  0  0  0  0  0  0  0
    4.9866   -0.1949   -0.0870 C   0  0  0  0  0  0  0  0  0  0  0  0
    5.9335    0.3677   -0.1279 H   0  0  0  0  0  0  0  0  0  0  0  0
    5.0241   -1.6143   -0.0817 C   0  0  0  0  0  0  0  0  0  0  0  0
    5.9898   -2.1389   -0.1178 H   0  0  0  0  0  0  0  0  0  0  0  0
    3.8370   -2.3252   -0.0291 C   0  0  0  0  0  3  0  0  0  0  0  0
    3.8397   -3.4271   -0.0214 H   0  0  0  0  0  0  0  0  0  0  0  0
    3.7349    2.0233   -0.0440 C   0  0  0  0  0  0  0  0  0  0  0  0
    4.7474    2.4680   -0.0840 H   0  0  0  0  0  0  0  0  0  0  0  0
    3.2058    2.4057    0.8535 H   0  0  0  0  0  0  0  0  0  0  0  0
    3.1397    2.3994   -0.9019 H   0  0  0  0  0  0  0  0  0  0  0  0
    1.3727   -2.3879    0.0868 C   0  0  0  0  0  0  0  0  0  0  0  0
    1.4576   -3.4916    0.1515 H   0  0  0  0  0  0  0  0  0  0  0  0
   -0.9956   -2.7403    0.2727 C   0  0  0  0  0  0  0  0  0  0  0  0
   -1.2365   -2.8244    1.3571 H   0  0  0  0  0  0  0  0  0  0  0  0
   -0.8030   -3.7725   -0.0935 H   0  0  0  0  0  0  0  0  0  0  0  0
   -2.1465   -2.1068   -0.4848 C   0  0  0  0  0  0  0  0  0  0  0  0
   -3.1106   -2.6130   -0.2683 H   0  0  0  0  0  0  0  0  0  0  0  0
   -1.9579   -2.1858   -1.5737 H   0  0  0  0  0  0  0  0  0  0  0  0
   -2.8254   -0.3607    1.1648 C   0  0  0  0  0  0  0  0  0  0  0  0
   -2.5815    0.6970    1.3864 H   0  0  0  0  0  0  0  0  0  0  0  0
   -2.3549   -0.9927    1.9437 H   0  0  0  0  0  0  0  0  0  0  0  0
   -4.3427   -0.5552    1.1399 C   0  0  0  0  0  0  0  0  0  0  0  0
   -4.6076   -1.6370    1.0160 H   0  0  0  0  0  0  0  0  0  0  0  0
   -4.7671   -0.2236    2.1087 H   0  0  0  0  0  0  0  0  0  0  0  0
   -4.4264   -0.1056   -1.1475 C   0  0  0  0  0  0  0  0  0  0  0  0
   -4.9246    0.5547   -1.8849 H   0  0  0  0  0  0  0  0  0  0  0  0
   -4.6846   -1.1616   -1.4176 H   0  0  0  0  0  0  0  0  0  0  0  0
   -2.9178    0.1290   -1.2015 C   0  0  0  0  0  0  0  0  0  0  0  0
   -2.4991   -0.1338   -2.1931 H   0  0  0  0  0  0  0  0  0  0  0  0
   -2.6866    1.1931   -1.0014 H   0  0  0  0  0  0  0  0  0  0  0  0
  2 29  1  0  0  0  0
  3 20  1  0  0  0  0
  4 26  1  0  0  0  0
  5 18  2  0  0  0  0
  6  5  1  0  0  0  0
  6  1  1  0  0  0  0
  7  6  2  0  0  0  0
  8 10  2  0  0  0  0
  8  7  1  0  0  0  0
  9  8  1  0  0  0  0
 10 12  1  0  0  0  0
 11 10  1  0  0  0  0
 12 13  1  0  0  0  0
 12  5  1  0  0  0  0
 14  7  1  0  0  0  0
 14 16  1  0  0  0  0
 15 14  1  0  0  0  0
 17 14  1  0  0  0  0
 18  3  1  0  0  0  0
 18 19  1  0  0  0  0
 20 21  1  0  0  0  0
 22 20  1  0  0  0  0
 23 24  1  0  0  0  0
 23  4  1  0  0  0  0
 23 20  1  0  0  0  0
 25 23  1  0  0  0  0
 26 27  1  0  0  0  0
 26 28  1  0  0  0  0
 29 26  1  0  0  0  0
 29 31  1  0  0  0  0
 30 29  1  0  0  0  0
 32  2  1  0  0  0  0
 33 32  1  0  0  0  0
 34 32  1  0  0  0  0
 35 32  1  0  0  0  0
 35 37  1  0  0  0  0
 35  4  1  0  0  0  0
 36 35  1  0  0  0  0
M  CHG  1   1  -1
M  END
