1,4,5
 OpenBabel05122313063D

 36 38  0  0  0  0  0  0  0  0999 V2000
   -1.6253   -1.5711    0.0216 O   0  5  0  0  0  0  0  0  0  0  0  0
   -6.1792    0.5892    0.0749 N   0  0  0  0  0  0  0  0  0  0  0  0
   -1.0960    0.6959   -0.0188 N   0  0  0  0  0  0  0  0  0  0  0  0
    0.1355    0.1770   -0.0311 N   0  0  0  0  0  2  0  0  0  0  0  0
    2.2215   -1.3167    0.0030 N   0  0  0  0  0  2  0  0  0  0  0  0
   -5.2574    1.5679    0.0707 C   0  0  0  0  0  0  0  0  0  0  0  0
   -3.8752    1.3382    0.0507 C   0  0  0  0  0  0  0  0  0  0  0  0
   -3.4202    0.0037    0.0341 C   0  0  0  0  0  0  0  0  0  0  0  0
   -4.3776   -1.0294    0.0402 C   0  0  0  0  0  0  0  0  0  0  0  0
   -5.7354   -0.6786    0.0600 C   0  0  0  0  0  0  0  0  0  0  0  0
   -1.9780   -0.3138    0.0112 C   0  0  0  0  0  0  0  0  0  0  0  0
    1.2404    0.8900   -0.0279 C   0  0  0  0  0  0  0  0  0  0  0  0
    2.4387    0.0364   -0.0466 C   0  0  0  0  0  0  0  0  0  0  0  0
    3.7544    0.5317   -0.1531 C   0  0  0  0  0  0  0  0  0  0  0  0
    4.8314   -0.3593   -0.1756 C   0  0  0  0  0  0  0  0  0  0  0  0
    4.5825   -1.7377   -0.0980 C   0  0  0  0  0  0  0  0  0  0  0  0
    3.2562   -2.1756   -0.0189 C   0  0  0  0  0  0  0  0  0  0  0  0
    1.2876    2.3668   -0.0228 C   0  0  0  0  0  0  0  0  0  0  0  0
    0.5137    3.0984   -0.9520 C   0  0  0  0  0  0  0  0  0  0  0  0
    0.5388    4.4984   -0.9410 C   0  0  0  0  0  0  0  0  0  0  0  0
    1.3210    5.1859    0.0018 C   0  0  0  0  0  0  0  0  0  0  0  0
    2.0807    4.4669    0.9383 C   0  0  0  0  0  0  0  0  0  0  0  0
    2.0677    3.0655    0.9265 C   0  0  0  0  0  0  0  0  0  0  0  0
   -5.6428    2.6031    0.0849 H   0  0  0  0  0  0  0  0  0  0  0  0
   -3.1498    2.1637    0.0507 H   0  0  0  0  0  0  0  0  0  0  0  0
   -4.0525   -2.0792    0.0291 H   0  0  0  0  0  0  0  0  0  0  0  0
   -6.5077   -1.4684    0.0643 H   0  0  0  0  0  0  0  0  0  0  0  0
    3.9119    1.6153   -0.2314 H   0  0  0  0  0  0  0  0  0  0  0  0
    5.8604    0.0206   -0.2602 H   0  0  0  0  0  0  0  0  0  0  0  0
    5.3981   -2.4738   -0.1106 H   0  0  0  0  0  0  0  0  0  0  0  0
    2.9931   -3.2427    0.0230 H   0  0  0  0  0  0  0  0  0  0  0  0
   -0.0989    2.5557   -1.6848 H   0  0  0  0  0  0  0  0  0  0  0  0
   -0.0591    5.0592   -1.6751 H   0  0  0  0  0  0  0  0  0  0  0  0
    1.3344    6.2863    0.0099 H   0  0  0  0  0  0  0  0  0  0  0  0
    2.6818    5.0010    1.6896 H   0  0  0  0  0  0  0  0  0  0  0  0
    2.6394    2.5040    1.6808 H   0  0  0  0  0  0  0  0  0  0  0  0
  3 11  2  0  0  0  0
  4 12  1  0  0  0  0
  4  3  1  0  0  0  0
  6  2  1  0  0  0  0
  6 24  1  0  0  0  0
  7 25  1  0  0  0  0
  7  6  2  0  0  0  0
  8  9  2  0  0  0  0
  8  7  1  0  0  0  0
  9 10  1  0  0  0  0
 10 27  1  0  0  0  0
 10  2  2  0  0  0  0
 11  1  1  0  0  0  0
 11  8  1  0  0  0  0
 12 18  1  0  0  0  0
 13 12  2  0  0  0  0
 13  5  1  0  0  0  0
 14 13  1  0  0  0  0
 15 14  2  0  0  0  0
 15 16  1  0  0  0  0
 16 17  2  0  0  0  0
 17  5  1  0  0  0  0
 17 31  1  0  0  0  0
 18 23  1  0  0  0  0
 19 20  1  0  0  0  0
 19 18  2  0  0  0  0
 20 21  2  0  0  0  0
 21 34  1  0  0  0  0
 21 22  1  0  0  0  0
 22 35  1  0  0  0  0
 23 22  2  0  0  0  0
 23 36  1  0  0  0  0
 26  9  1  0  0  0  0
 28 14  1  0  0  0  0
 29 15  1  0  0  0  0
 30 16  1  0  0  0  0
 32 19  1  0  0  0  0
 33 20  1  0  0  0  0
M  CHG  1   1  -1
M  END
