1,2,3
 OpenBabel05122313063D

 35 36  0  0  0  0  0  0  0  0999 V2000
    0.2981    1.3171    0.0655 O   0  5  0  0  0  0  0  0  0  0  0  0
    0.6267   -1.3591    0.1173 N   0  0  0  0  0  2  0  0  0  0  0  0
    3.2540   -1.0891   -0.1316 N   0  0  0  0  0  0  0  0  0  0  0  0
    3.9179   -1.0427    1.1892 C   0  0  0  0  0  0  0  0  0  0  0  0
    4.8178   -1.6993    1.2006 H   0  0  0  0  0  0  0  0  0  0  0  0
    3.2195   -1.3718    1.9807 H   0  0  0  0  0  0  0  0  0  0  0  0
    4.2077    0.0059    1.3872 H   0  0  0  0  0  0  0  0  0  0  0  0
    4.2040   -0.6744   -1.1845 C   0  0  0  0  0  0  0  0  0  0  0  0
    4.5148    0.3656   -0.9764 H   0  0  0  0  0  0  0  0  0  0  0  0
    3.6967   -0.6995   -2.1669 H   0  0  0  0  0  0  0  0  0  0  0  0
    5.0838   -1.3562   -1.2042 H   0  0  0  0  0  0  0  0  0  0  0  0
    2.6876   -2.4315   -0.4319 C   0  0  0  0  0  0  0  0  0  0  0  0
    2.4851   -2.4632   -1.5205 H   0  0  0  0  0  0  0  0  0  0  0  0
    3.4217   -3.2336   -0.1921 H   0  0  0  0  0  0  0  0  0  0  0  0
    1.3796   -2.5929    0.3231 C   0  0  0  0  0  0  0  0  0  0  0  0
    1.5672   -2.7478    1.4103 H   0  0  0  0  0  0  0  0  0  0  0  0
    0.8241   -3.4866   -0.0370 H   0  0  0  0  0  0  0  0  0  0  0  0
   -0.6933   -1.3925    0.1298 C   0  0  0  0  0  0  0  0  0  0  0  0
   -1.1578   -2.3910    0.2273 H   0  0  0  0  0  0  0  0  0  0  0  0
   -1.5509   -0.2597    0.0457 C   0  0  0  0  0  0  0  0  0  0  0  0
   -0.9744    1.0568    0.0352 C   0  0  0  0  0  0  0  0  0  0  0  0
   -1.8504    2.2012    0.0054 C   0  0  0  0  0  0  0  0  0  0  0  0
   -1.3627    3.1868    0.0080 H   0  0  0  0  0  0  0  0  0  0  0  0
   -3.2141    2.0512   -0.0229 C   0  0  0  0  0  0  0  0  0  0  0  0
   -3.8649    2.9399   -0.0443 H   0  0  0  0  0  0  0  0  0  0  0  0
   -3.8324    0.7558   -0.0297 C   0  0  0  0  0  0  0  0  0  0  0  0
   -5.2457    0.6234   -0.0685 C   0  0  0  0  0  3  0  0  0  0  0  0
   -5.8558    1.5402   -0.0889 H   0  0  0  0  0  0  0  0  0  0  0  0
   -5.8527   -0.6272   -0.0825 C   0  0  0  0  0  0  0  0  0  0  0  0
   -6.9487   -0.7168   -0.1129 H   0  0  0  0  0  0  0  0  0  0  0  0
   -5.0422   -1.7849   -0.0622 C   0  0  0  0  0  0  0  0  0  0  0  0
   -5.5090   -2.7817   -0.0796 H   0  0  0  0  0  0  0  0  0  0  0  0
   -3.6537   -1.6804   -0.0252 C   0  0  0  0  0  0  0  0  0  0  0  0
   -3.0642   -2.6083   -0.0223 H   0  0  0  0  0  0  0  0  0  0  0  0
   -2.9995   -0.4172   -0.0012 C   0  0  0  0  0  0  0  0  0  0  0  0
  2 18  1  0  0  0  0
  2 15  1  0  0  0  0
  3  4  1  0  0  0  0
  4  5  1  0  0  0  0
  4  7  1  0  0  0  0
  4  6  1  0  0  0  0
  8  9  1  0  0  0  0
  8  3  1  0  0  0  0
 10  8  1  0  0  0  0
 11  8  1  0  0  0  0
 12 14  1  0  0  0  0
 12  3  1  0  0  0  0
 12 15  1  0  0  0  0
 13 12  1  0  0  0  0
 15 16  1  0  0  0  0
 17 15  1  0  0  0  0
 18 19  1  0  0  0  0
 20 18  2  0  0  0  0
 21 20  1  0  0  0  0
 21  1  1  0  0  0  0
 22 23  1  0  0  0  0
 22 21  2  0  0  0  0
 24 22  1  0  0  0  0
 25 24  1  0  0  0  0
 26 24  2  0  0  0  0
 26 35  1  0  0  0  0
 27 26  1  0  0  0  0
 28 27  1  0  0  0  0
 29 27  1  0  0  0  0
 29 31  2  0  0  0  0
 30 29  1  0  0  0  0
 31 33  1  0  0  0  0
 32 31  1  0  0  0  0
 33 34  1  0  0  0  0
 33 35  2  0  0  0  0
 35 20  1  0  0  0  0
M  CHG  1   1  -1
M  END
