6,18,19
 OpenBabel05122313063D

 49 51  0  0  0  0  0  0  0  0999 V2000
    8.3085    2.9336   -0.4313 Br  0  0  0  0  0  0  0  0  0  0  0  0
   -5.9211   -3.8855    0.3260 Br  0  0  0  0  0  0  0  0  0  0  0  0
   -6.9343    5.4416   -0.1085 Br  0  0  0  0  0  0  0  0  0  0  0  0
    0.0994    0.0393    0.0393 C   0  0  0  0  0  0  0  0  0  0  0  0
    1.0364    0.9676    0.0816 N   0  0  0  0  0  0  0  0  0  0  0  0
    2.2722    0.4132    0.0856 N   0  0  0  0  0  2  0  0  0  0  0  0
    3.2867    1.2492    0.0240 C   0  0  0  0  0  3  0  0  0  0  0  0
    3.0254    2.3190   -0.0749 H   0  0  0  0  0  0  0  0  0  0  0  0
    4.6803    0.8832    0.0752 C   0  0  0  0  0  0  0  0  0  0  0  0
    5.1145   -0.4360    0.4108 C   0  0  0  0  0  0  0  0  0  0  0  0
    6.4932   -0.7183    0.4870 C   0  0  0  0  0  0  0  0  0  0  0  0
    6.8008   -1.7405    0.7490 H   0  0  0  0  0  0  0  0  0  0  0  0
    7.4428    0.2767    0.2336 C   0  0  0  0  0  0  0  0  0  0  0  0
    8.5160    0.0465    0.2891 H   0  0  0  0  0  0  0  0  0  0  0  0
    7.0168    1.5794   -0.0920 C   0  0  0  0  0  0  0  0  0  0  0  0
    5.6568    1.8840   -0.1650 C   0  0  0  0  0  0  0  0  0  0  0  0
    5.3302    2.9034   -0.4164 H   0  0  0  0  0  0  0  0  0  0  0  0
    4.2371   -1.4057    0.7004 O   0  5  0  0  0  0  0  0  0  0  0  0
    0.3923   -1.3141    0.0131 N   0  0  0  0  0  2  0  0  0  0  0  0
   -0.7033   -2.1076   -0.0795 N   0  0  0  0  0  0  0  0  0  0  0  0
   -0.6028   -3.3836   -0.3009 C   0  0  0  0  0  0  0  0  0  0  0  0
    0.3749   -3.8769   -0.4464 H   0  0  0  0  0  0  0  0  0  0  0  0
   -1.7926   -4.2277   -0.3532 C   0  0  0  0  0  0  0  0  0  0  0  0
   -1.6567   -5.5931   -0.7357 C   0  0  0  0  0  0  0  0  0  0  0  0
   -2.7936   -6.4213   -0.7958 C   0  0  0  0  0  0  0  0  0  0  0  0
   -2.6798   -7.4763   -1.0943 H   0  0  0  0  0  0  0  0  0  0  0  0
   -4.0643   -5.9226   -0.4861 C   0  0  0  0  0  0  0  0  0  0  0  0
   -4.9457   -6.5767   -0.5359 H   0  0  0  0  0  0  0  0  0  0  0  0
   -4.1985   -4.5748   -0.1067 C   0  0  0  0  0  0  0  0  0  0  0  0
   -3.0809   -3.7408   -0.0376 C   0  0  0  0  0  0  0  0  0  0  0  0
   -3.1840   -2.6930    0.2743 H   0  0  0  0  0  0  0  0  0  0  0  0
   -0.4113   -6.0411   -1.0360 O   0  0  0  0  0  0  0  0  0  0  0  0
   -0.4588   -6.9866   -1.2685 H   0  0  0  0  0  0  0  0  0  0  0  0
   -1.2216    0.3907    0.0023 N   0  0  0  0  0  0  0  0  0  0  0  0
   -1.8739   -0.4124   -0.0380 H   0  0  0  0  0  0  0  0  0  0  0  0
   -1.6066    1.6725    0.0024 N   0  0  0  0  0  0  0  0  0  0  0  0
   -2.8745    1.9756   -0.0276 C   0  0  0  0  0  0  0  0  0  0  0  0
   -3.6585    1.1870   -0.0520 H   0  0  0  0  0  0  0  0  0  0  0  0
   -3.2863    3.3640   -0.0287 C   0  0  0  0  0  0  0  0  0  0  0  0
   -2.3111    4.4194    0.0046 C   0  0  0  0  0  0  0  0  0  0  0  0
   -2.7633    5.7584    0.0023 C   0  0  0  0  0  0  0  0  0  0  0  0
   -2.0074    6.5563    0.0277 H   0  0  0  0  0  0  0  0  0  0  0  0
   -4.1255    6.0615   -0.0311 C   0  0  0  0  0  0  0  0  0  0  0  0
   -4.4597    7.1087   -0.0324 H   0  0  0  0  0  0  0  0  0  0  0  0
   -5.0767    5.0210   -0.0633 C   0  0  0  0  0  0  0  0  0  0  0  0
   -4.6645    3.6891   -0.0622 C   0  0  0  0  0  0  0  0  0  0  0  0
   -5.4082    2.8788   -0.0876 H   0  0  0  0  0  0  0  0  0  0  0  0
   -0.9973    4.1833    0.0379 O   0  0  0  0  0  0  0  0  0  0  0  0
   -0.8639    3.1804    0.0342 H   0  0  0  0  0  0  0  0  0  0  0  0
  1 15  1  0  0  0  0
  3 45  1  0  0  0  0
  4  5  2  0  0  0  0
  5  6  1  0  0  0  0
  7  9  1  0  0  0  0
  7  6  1  0  0  0  0
  8  7  1  0  0  0  0
  9 10  1  0  0  0  0
 10 11  2  0  0  0  0
 10 18  1  0  0  0  0
 11 12  1  0  0  0  0
 13 14  1  0  0  0  0
 13 11  1  0  0  0  0
 15 13  2  0  0  0  0
 16 15  1  0  0  0  0
 16  9  2  0  0  0  0
 17 16  1  0  0  0  0
 19  4  1  0  0  0  0
 20 19  1  0  0  0  0
 21 20  2  0  0  0  0
 22 21  1  0  0  0  0
 23 21  1  0  0  0  0
 23 30  1  0  0  0  0
 24 23  2  0  0  0  0
 25 24  1  0  0  0  0
 25 27  2  0  0  0  0
 26 25  1  0  0  0  0
 27 29  1  0  0  0  0
 28 27  1  0  0  0  0
 29 30  2  0  0  0  0
 29  2  1  0  0  0  0
 30 31  1  0  0  0  0
 32 24  1  0  0  0  0
 33 32  1  0  0  0  0
 34 36  1  0  0  0  0
 34  4  1  0  0  0  0
 35 34  1  0  0  0  0
 37 36  2  0  0  0  0
 38 37  1  0  0  0  0
 39 37  1  0  0  0  0
 39 40  1  0  0  0  0
 40 48  1  0  0  0  0
 41 40  2  0  0  0  0
 41 42  1  0  0  0  0
 43 41  1  0  0  0  0
 44 43  1  0  0  0  0
 45 46  1  0  0  0  0
 45 43  2  0  0  0  0
 46 39  2  0  0  0  0
 47 46  1  0  0  0  0
 49 48  1  0  0  0  0
M  CHG  1  18  -1
M  END
