2,3,4
 OpenBabel05122313063D

 43 45  0  0  1  0  0  0  0  0999 V2000
    2.1217    2.9539   -0.1940 S   0  0  0  0  0  0  0  0  0  0  0  0
   -0.7433   -2.4187    0.1920 O   0  5  0  0  0  0  0  0  0  0  0  0
   -0.6382    0.2397   -0.3749 N   0  0  0  0  0  2  0  0  0  0  0  0
    1.9146    0.2685   -0.4305 N   0  0  0  0  0  2  0  0  0  0  0  0
   -0.0930    1.4798   -0.2553 N   0  0  0  0  0  0  0  0  0  0  0  0
   -1.9629    0.1669   -0.4278 C   0  0  2  0  0  3  0  0  0  0  0  0
   -2.7585    1.4309   -0.4154 C   0  0  0  0  0  0  0  0  0  0  0  0
    3.3375    0.2519   -0.3415 C   0  0  0  0  0  0  0  0  0  0  0  0
   -2.0374   -2.3518   -0.1436 C   0  0  0  0  0  0  0  0  0  0  0  0
   -2.6711   -1.1098   -0.4675 C   0  0  0  0  0  0  0  0  0  0  0  0
   -3.3996    3.5453   -1.4437 C   0  0  0  0  0  0  0  0  0  0  0  0
    3.9718    0.5715    0.8773 C   0  0  0  0  0  0  0  0  0  0  0  0
    6.1395    0.1648   -0.1503 C   0  0  0  0  0  0  0  0  0  0  0  0
    1.2259    1.4331   -0.2993 C   0  0  0  0  0  0  0  0  0  0  0  0
   -4.0534   -1.1419   -0.7992 C   0  0  0  0  0  0  0  0  0  0  0  0
   -3.6279    1.7037    0.6597 C   0  0  0  0  0  0  0  0  0  0  0  0
   -2.7859   -3.5478   -0.1311 C   0  0  0  0  0  0  0  0  0  0  0  0
   -4.3661    2.8966    0.6893 C   0  0  0  0  0  0  0  0  0  0  0  0
   -4.7816   -2.3314   -0.8008 C   0  0  0  0  0  0  0  0  0  0  0  0
    5.3699    0.5329    0.9654 C   0  0  0  0  0  0  0  0  0  0  0  0
    5.5046   -0.1687   -1.3578 C   0  0  0  0  0  0  0  0  0  0  0  0
   -2.6482    2.3635   -1.4671 C   0  0  0  0  0  0  0  0  0  0  0  0
    4.1074   -0.1254   -1.4578 C   0  0  0  0  0  0  0  0  0  0  0  0
   -4.2552    3.8185   -0.3625 C   0  0  0  0  0  0  0  0  0  0  0  0
    0.7351    4.1298   -0.1179 C   0  0  0  0  0  0  0  0  0  0  0  0
   -4.1445   -3.5391   -0.4569 C   0  0  0  0  0  0  0  0  0  0  0  0
   -4.5477   -0.1994   -1.0729 H   0  0  0  0  0  0  0  0  0  0  0  0
   -5.8468   -2.3218   -1.0734 H   0  0  0  0  0  0  0  0  0  0  0  0
   -4.7111   -4.4826   -0.4496 H   0  0  0  0  0  0  0  0  0  0  0  0
   -2.2599   -4.4754    0.1354 H   0  0  0  0  0  0  0  0  0  0  0  0
   -1.9683    2.1517   -2.3049 H   0  0  0  0  0  0  0  0  0  0  0  0
   -3.3152    4.2620   -2.2747 H   0  0  0  0  0  0  0  0  0  0  0  0
   -4.8393    4.7511   -0.3432 H   0  0  0  0  0  0  0  0  0  0  0  0
   -5.0348    3.1037    1.5385 H   0  0  0  0  0  0  0  0  0  0  0  0
   -3.7184    0.9747    1.4792 H   0  0  0  0  0  0  0  0  0  0  0  0
    1.2049    5.1286   -0.0387 H   0  0  0  0  0  0  0  0  0  0  0  0
    0.1139    4.0659   -1.0298 H   0  0  0  0  0  0  0  0  0  0  0  0
    0.1016    3.9278    0.7649 H   0  0  0  0  0  0  0  0  0  0  0  0
    3.5936   -0.3889   -2.3937 H   0  0  0  0  0  0  0  0  0  0  0  0
    6.1029   -0.4665   -2.2321 H   0  0  0  0  0  0  0  0  0  0  0  0
    7.2368    0.1295   -0.0759 H   0  0  0  0  0  0  0  0  0  0  0  0
    5.8621    0.7831    1.9176 H   0  0  0  0  0  0  0  0  0  0  0  0
    3.3516    0.8359    1.7462 H   0  0  0  0  0  0  0  0  0  0  0  0
  1 25  1  0  0  0  0
  3  5  1  0  0  0  0
  4  8  1  0  0  0  0
  4 14  1  0  0  0  0
  6  7  1  0  0  0  0
  6  3  1  1  0  0  0
  7 16  1  0  0  0  0
  8 12  1  0  0  0  0
  9 17  1  0  0  0  0
  9  2  1  0  0  0  0
 10  6  1  0  0  0  0
 10  9  2  0  0  0  0
 11 24  2  0  0  0  0
 12 20  2  0  0  0  0
 12 43  1  0  0  0  0
 13 41  1  0  0  0  0
 13 20  1  0  0  0  0
 14  5  2  0  0  0  0
 14  1  1  0  0  0  0
 15 10  1  0  0  0  0
 16 18  2  0  0  0  0
 16 35  1  0  0  0  0
 17 30  1  0  0  0  0
 18 34  1  0  0  0  0
 19 15  2  0  0  0  0
 19 26  1  0  0  0  0
 20 42  1  0  0  0  0
 21 13  2  0  0  0  0
 22 11  1  0  0  0  0
 22  7  2  0  0  0  0
 23 21  1  0  0  0  0
 23  8  2  0  0  0  0
 24 33  1  0  0  0  0
 24 18  1  0  0  0  0
 25 36  1  0  0  0  0
 25 38  1  0  0  0  0
 26 29  1  0  0  0  0
 26 17  2  0  0  0  0
 27 15  1  0  0  0  0
 28 19  1  0  0  0  0
 31 22  1  0  0  0  0
 32 11  1  0  0  0  0
 37 25  1  0  0  0  0
 39 23  1  0  0  0  0
 40 21  1  0  0  0  0
M  CHG  1   2  -1
M  END
