1,2,6
 OpenBabel05122313063D

 26 27  0  0  0  0  0  0  0  0999 V2000
    0.9624   -0.5219   -1.5967 N   0  0  0  0  0  2  0  0  0  0  0  0
    1.3222    0.8290    0.4337 O   0  5  0  0  0  0  0  0  0  0  0  0
    2.0126    0.3136   -1.7169 N   0  0  0  0  0  0  0  0  0  0  0  0
    2.1180    1.0010   -0.5636 C   0  0  0  0  0  0  0  0  0  0  0  0
   -0.5729   -2.1156   -2.2372 C   0  0  0  0  0  0  0  0  0  0  0  0
   -1.0363   -1.8849   -0.9524 N   0  0  0  0  0  2  0  0  0  0  0  0
    0.5730   -1.3219   -2.5829 C   0  0  0  0  0  0  0  0  0  0  0  0
    1.0853   -1.3392   -3.5561 H   0  0  0  0  0  0  0  0  0  0  0  0
    3.2085    1.9998   -0.4447 C   0  0  0  0  0  0  0  0  0  0  0  0
   -2.1193   -2.5526   -0.5100 C   0  0  0  0  0  0  0  0  0  0  0  0
   -2.4480   -2.3154    0.5130 H   0  0  0  0  0  0  0  0  0  0  0  0
   -1.2183   -3.0506   -3.0736 C   0  0  0  0  0  0  0  0  0  0  0  0
   -0.8296   -3.2155   -4.0886 H   0  0  0  0  0  0  0  0  0  0  0  0
    5.2802    3.9016   -0.1838 N   0  0  0  0  0  0  0  0  0  0  0  0
    3.3627    2.7441    0.7404 C   0  0  0  0  0  0  0  0  0  0  0  0
    2.6671    2.5853    1.5767 H   0  0  0  0  0  0  0  0  0  0  0  0
   -2.8008   -3.4878   -1.2987 C   0  0  0  0  0  0  0  0  0  0  0  0
   -3.6814   -4.0022   -0.8899 H   0  0  0  0  0  0  0  0  0  0  0  0
    4.4089    3.6748    0.8139 C   0  0  0  0  0  0  0  0  0  0  0  0
    4.5511    4.2720    1.7327 H   0  0  0  0  0  0  0  0  0  0  0  0
    4.1149    2.2316   -1.4982 C   0  0  0  0  0  0  0  0  0  0  0  0
    4.0156    1.6669   -2.4357 H   0  0  0  0  0  0  0  0  0  0  0  0
   -2.3384   -3.7416   -2.6020 C   0  0  0  0  0  0  0  0  0  0  0  0
   -2.8519   -4.4709   -3.2458 H   0  0  0  0  0  0  0  0  0  0  0  0
    5.1236    3.1873   -1.3118 C   0  0  0  0  0  0  0  0  0  0  0  0
    5.8476    3.3880   -2.1222 H   0  0  0  0  0  0  0  0  0  0  0  0
  3  1  1  0  0  0  0
  3  4  2  0  0  0  0
  4  9  1  0  0  0  0
  4  2  1  0  0  0  0
  5  6  1  0  0  0  0
  6 10  1  0  0  0  0
  7  5  2  0  0  0  0
  7  1  1  0  0  0  0
  8  7  1  0  0  0  0
  9 15  1  0  0  0  0
 10 11  1  0  0  0  0
 12 23  2  0  0  0  0
 12  5  1  0  0  0  0
 13 12  1  0  0  0  0
 14 19  1  0  0  0  0
 15 19  2  0  0  0  0
 15 16  1  0  0  0  0
 17 18  1  0  0  0  0
 17 10  2  0  0  0  0
 19 20  1  0  0  0  0
 21 25  1  0  0  0  0
 21  9  2  0  0  0  0
 22 21  1  0  0  0  0
 23 17  1  0  0  0  0
 24 23  1  0  0  0  0
 25 14  2  0  0  0  0
 26 25  1  0  0  0  0
M  CHG  1   2  -1
M  END
