2,3,4
 OpenBabel05122313063D

 39 42  0  0  1  0  0  0  0  0999 V2000
    4.5303   -0.9506   -1.4641 S   0  0  0  0  0  0  0  0  0  0  0  0
    0.5419   -1.2549    0.0081 N   0  0  0  0  0  2  0  0  0  0  0  0
   -0.3286    0.9436    1.3492 N   0  0  0  0  0  2  0  0  0  0  0  0
   -0.3977    1.1052   -1.9170 O   0  5  0  0  0  0  0  0  0  0  0  0
   -0.2864    3.2846   -1.3203 O   0  0  0  0  0  0  0  0  0  0  0  0
    3.7919   -1.6119   -2.5569 O   0  0  0  0  0  1  0  0  0  0  0  0
    4.4829   -1.8553   -0.0875 O   0  0  0  0  0  0  0  0  0  0  0  0
    5.9613   -0.6320   -1.5981 O   0  0  0  0  0  1  0  0  0  0  0  0
    1.0260   -2.3331   -0.6898 C   0  0  0  0  0  0  0  0  0  0  0  0
    0.3691   -2.7087   -1.4927 H   0  0  0  0  0  0  0  0  0  0  0  0
    2.2221   -2.9524   -0.4443 C   0  0  0  0  0  0  0  0  0  0  0  0
    2.5252   -3.8111   -1.0580 H   0  0  0  0  0  0  0  0  0  0  0  0
    3.1837   -2.4052    0.5381 C   0  0  2  0  0  0  0  0  0  0  0  0
    3.6787   -3.1926    1.1442 H   0  0  0  0  0  0  0  0  0  0  0  0
    2.5593   -1.3506    1.4013 C   0  0  0  0  0  0  0  0  0  0  0  0
    3.2655   -0.8260    2.5164 C   0  0  0  0  0  0  0  0  0  0  0  0
    4.2314   -1.2882    2.7747 H   0  0  0  0  0  0  0  0  0  0  0  0
    2.8062    0.2605    3.2455 C   0  0  0  0  0  0  0  0  0  0  0  0
    3.3808    0.6603    4.0938 H   0  0  0  0  0  0  0  0  0  0  0  0
    1.5892    0.8990    2.8652 C   0  0  0  0  0  0  0  0  0  0  0  0
    1.0720    2.0664    3.4888 C   0  0  0  0  0  0  0  0  0  0  0  0
    1.6251    2.5120    4.3305 H   0  0  0  0  0  0  0  0  0  0  0  0
   -0.1042    2.6472    3.0274 C   0  0  0  0  0  0  0  0  0  0  0  0
   -0.5089    3.5607    3.4855 H   0  0  0  0  0  0  0  0  0  0  0  0
   -0.7813    2.0498    1.9421 C   0  0  0  0  0  0  0  0  0  0  0  0
   -1.7069    2.4864    1.5352 H   0  0  0  0  0  0  0  0  0  0  0  0
    1.3133   -0.7876    1.0312 C   0  0  0  0  0  0  0  0  0  0  0  0
    0.8339    0.3640    1.7677 C   0  0  2  0  0  3  0  0  0  0  0  0
    0.2356    2.1691   -1.5042 C   0  0  0  0  0  0  0  0  0  0  0  0
    1.6925    1.9623   -1.1360 C   0  0  0  0  0  0  0  0  0  0  0  0
    2.3713    0.7879   -1.5126 C   0  0  0  0  0  0  0  0  0  0  0  0
    1.8817    0.0508   -2.1623 H   0  0  0  0  0  0  0  0  0  0  0  0
    3.6614    0.5618   -1.0219 C   0  0  0  0  0  0  0  0  0  0  0  0
    4.3066    1.4821   -0.1789 C   0  0  0  0  0  0  0  0  0  0  0  0
    5.3233    1.2678    0.1803 H   0  0  0  0  0  0  0  0  0  0  0  0
    3.6341    2.6617    0.1702 C   0  0  0  0  0  0  0  0  0  0  0  0
    4.1262    3.3962    0.8259 H   0  0  0  0  0  0  0  0  0  0  0  0
    2.3375    2.9020   -0.3099 C   0  0  0  0  0  0  0  0  0  0  0  0
    1.7805    3.8124   -0.0430 H   0  0  0  0  0  0  0  0  0  0  0  0
  1 33  1  0  0  0  0
  1  7  1  0  0  0  0
  2 27  1  0  0  0  0
  3 28  1  0  0  0  0
  3 25  1  0  0  0  0
  4 29  1  0  0  0  0
  6  1  1  0  0  0  0
  7 13  1  0  0  0  0
  8  1  1  0  0  0  0
  9 11  2  0  0  0  0
  9  2  1  0  0  0  0
 10  9  1  0  0  0  0
 11 13  1  0  0  0  0
 12 11  1  0  0  0  0
 13 14  1  1  0  0  0
 13 15  1  0  0  0  0
 15 16  1  0  0  0  0
 16 17  1  0  0  0  0
 16 18  2  0  0  0  0
 18 19  1  0  0  0  0
 20 18  1  0  0  0  0
 20 21  2  0  0  0  0
 21 22  1  0  0  0  0
 23 24  1  0  0  0  0
 23 21  1  0  0  0  0
 25 23  2  0  0  0  0
 26 25  1  0  0  0  0
 27 15  2  0  0  0  0
 28 27  1  6  0  0  0
 28 20  1  0  0  0  0
 29  5  2  0  0  0  0
 29 30  1  0  0  0  0
 30 38  1  0  0  0  0
 31 30  2  0  0  0  0
 31 33  1  0  0  0  0
 32 31  1  0  0  0  0
 33 34  2  0  0  0  0
 34 36  1  0  0  0  0
 34 35  1  0  0  0  0
 36 37  1  0  0  0  0
 38 39  1  0  0  0  0
 38 36  2  0  0  0  0
M  CHG  1   4  -1
M  END
