2,4,5
 OpenBabel05122313063D

 64 65  0  0  1  0  0  0  0  0999 V2000
   -1.2933    1.1094    0.0164 N   0  0  0  0  0  0  0  0  0  0  0  0
   -1.5079   -0.2434   -0.0441 N   0  0  0  0  0  2  0  0  0  0  0  0
    1.2941    1.1086    0.0167 N   0  0  0  0  0  0  0  0  0  0  0  0
    1.5075   -0.2443   -0.0447 N   0  0  0  0  0  2  0  0  0  0  0  0
    0.0003   -0.4738    2.5818 O   0  0  0  0  0  1  0  0  0  0  0  0
    0.0003    1.7562    2.1041 O   0  0  0  0  0  0  0  0  0  0  0  0
    0.0003    0.7248    2.8923 C   0  0  0  0  0  3  0  0  0  0  0  0
   -2.3881    1.7723   -0.4709 C   0  0  1  0  0  3  0  0  0  0  0  0
   -3.3174    0.8031   -0.8617 C   0  0  0  0  0  0  0  0  0  0  0  0
   -2.7309   -0.4505   -0.5794 C   0  0  0  0  0  0  0  0  0  0  0  0
    2.3895    1.7708   -0.4700 C   0  0  2  0  0  3  0  0  0  0  0  0
    3.3180    0.8010   -0.8613 C   0  0  0  0  0  0  0  0  0  0  0  0
    2.7304   -0.4523   -0.5799 C   0  0  0  0  0  0  0  0  0  0  0  0
   -2.5252    3.2744   -0.4891 C   0  0  0  0  0  0  0  0  0  0  0  0
   -3.6277    3.7237   -1.4559 C   0  0  0  0  0  0  0  0  0  0  0  0
   -2.7732    3.8213    0.9306 C   0  0  0  0  0  0  0  0  0  0  0  0
    2.5280    3.2728   -0.4874 C   0  0  0  0  0  0  0  0  0  0  0  0
    2.7758    3.8188    0.9328 C   0  0  0  0  0  0  0  0  0  0  0  0
    3.6314    3.7217   -1.4534 C   0  0  0  0  0  0  0  0  0  0  0  0
   -3.3176   -1.8356   -0.8047 C   0  0  0  0  0  0  0  0  0  0  0  0
   -2.3695   -2.6696   -1.6942 C   0  0  0  0  0  0  0  0  0  0  0  0
   -4.6794   -1.7021   -1.5110 C   0  0  0  0  0  0  0  0  0  0  0  0
   -3.5231   -2.5360    0.5578 C   0  0  0  0  0  0  0  0  0  0  0  0
    3.3159   -1.8377   -0.8061 C   0  0  0  0  0  0  0  0  0  0  0  0
    3.5214   -2.5388    0.5560 C   0  0  0  0  0  0  0  0  0  0  0  0
    2.3667   -2.6706   -1.6954 C   0  0  0  0  0  0  0  0  0  0  0  0
    4.6774   -1.7051   -1.5130 C   0  0  0  0  0  0  0  0  0  0  0  0
    0.0005    1.7452    0.5669 B   0  0  2  0  0  0  0  0  0  0  0  0
    0.0002    1.0119    3.9719 H   0  0  0  0  0  0  0  0  0  0  0  0
   -4.2996    0.9858   -1.3024 H   0  0  0  0  0  0  0  0  0  0  0  0
    4.3005    0.9831   -1.3019 H   0  0  0  0  0  0  0  0  0  0  0  0
   -1.5600    3.6922   -0.8472 H   0  0  0  0  0  0  0  0  0  0  0  0
   -3.6628    4.8298   -1.5111 H   0  0  0  0  0  0  0  0  0  0  0  0
   -4.6263    3.3790   -1.1163 H   0  0  0  0  0  0  0  0  0  0  0  0
   -3.4614    3.3321   -2.4790 H   0  0  0  0  0  0  0  0  0  0  0  0
   -2.8446    4.9279    0.9141 H   0  0  0  0  0  0  0  0  0  0  0  0
   -1.9584    3.5379    1.6245 H   0  0  0  0  0  0  0  0  0  0  0  0
   -3.7246    3.4216    1.3383 H   0  0  0  0  0  0  0  0  0  0  0  0
    1.5633    3.6916   -0.8457 H   0  0  0  0  0  0  0  0  0  0  0  0
    2.8482    4.9253    0.9168 H   0  0  0  0  0  0  0  0  0  0  0  0
    3.7266    3.4180    1.3407 H   0  0  0  0  0  0  0  0  0  0  0  0
    1.9603    3.5357    1.6261 H   0  0  0  0  0  0  0  0  0  0  0  0
    3.6674    4.8278   -1.5079 H   0  0  0  0  0  0  0  0  0  0  0  0
    3.4652    3.3308   -2.4767 H   0  0  0  0  0  0  0  0  0  0  0  0
    4.6294    3.3759   -1.1134 H   0  0  0  0  0  0  0  0  0  0  0  0
   -2.1762   -2.1593   -2.6594 H   0  0  0  0  0  0  0  0  0  0  0  0
   -2.8246   -3.6581   -1.9083 H   0  0  0  0  0  0  0  0  0  0  0  0
   -1.4043   -2.8627   -1.1877 H   0  0  0  0  0  0  0  0  0  0  0  0
   -4.5825   -1.1995   -2.4946 H   0  0  0  0  0  0  0  0  0  0  0  0
   -5.4042   -1.1294   -0.8977 H   0  0  0  0  0  0  0  0  0  0  0  0
   -5.1093   -2.7083   -1.6856 H   0  0  0  0  0  0  0  0  0  0  0  0
   -4.0004   -3.5257    0.4054 H   0  0  0  0  0  0  0  0  0  0  0  0
   -4.1793   -1.9330    1.2173 H   0  0  0  0  0  0  0  0  0  0  0  0
   -2.5596   -2.7130    1.0738 H   0  0  0  0  0  0  0  0  0  0  0  0
    4.1785   -1.9365    1.2154 H   0  0  0  0  0  0  0  0  0  0  0  0
    3.9980   -3.5288    0.4030 H   0  0  0  0  0  0  0  0  0  0  0  0
    2.5580   -2.7152    1.0724 H   0  0  0  0  0  0  0  0  0  0  0  0
    2.1733   -2.1599   -2.6604 H   0  0  0  0  0  0  0  0  0  0  0  0
    1.4015   -2.8631   -1.1885 H   0  0  0  0  0  0  0  0  0  0  0  0
    2.8208   -3.6594   -1.9101 H   0  0  0  0  0  0  0  0  0  0  0  0
    5.4030   -1.1333   -0.8999 H   0  0  0  0  0  0  0  0  0  0  0  0
    4.5805   -1.2019   -2.4964 H   0  0  0  0  0  0  0  0  0  0  0  0
    5.1064   -2.7116   -1.6884 H   0  0  0  0  0  0  0  0  0  0  0  0
    0.0010    2.9164    0.2558 H   0  0  0  0  0  0  0  0  0  0  0  0
  1 28  1  0  0  0  0
  2  1  1  0  0  0  0
  3 28  1  0  0  0  0
  4  3  1  0  0  0  0
  5  7  1  0  0  0  0
  6  7  1  0  0  0  0
  7 29  1  0  0  0  0
  8 14  1  1  0  0  0
  8  1  1  0  0  0  0
  9 10  2  0  0  0  0
  9  8  1  0  0  0  0
 10  2  1  0  0  0  0
 11 17  1  1  0  0  0
 11  3  1  0  0  0  0
 12 13  2  0  0  0  0
 12 11  1  0  0  0  0
 13  4  1  0  0  0  0
 14 16  1  0  0  0  0
 15 34  1  0  0  0  0
 15 14  1  0  0  0  0
 16 38  1  0  0  0  0
 16 37  1  0  0  0  0
 17 18  1  0  0  0  0
 18 41  1  0  0  0  0
 18 42  1  0  0  0  0
 19 45  1  0  0  0  0
 19 17  1  0  0  0  0
 20 10  1  0  0  0  0
 20 23  1  0  0  0  0
 21 48  1  0  0  0  0
 21 20  1  0  0  0  0
 22 50  1  0  0  0  0
 22 20  1  0  0  0  0
 23 54  1  0  0  0  0
 23 53  1  0  0  0  0
 24 13  1  0  0  0  0
 24 25  1  0  0  0  0
 25 57  1  0  0  0  0
 25 55  1  0  0  0  0
 26 59  1  0  0  0  0
 26 24  1  0  0  0  0
 27 61  1  0  0  0  0
 27 24  1  0  0  0  0
 28 64  1  6  0  0  0
 28  6  1  0  0  0  0
 30  9  1  0  0  0  0
 31 12  1  0  0  0  0
 32 14  1  0  0  0  0
 33 15  1  0  0  0  0
 35 15  1  0  0  0  0
 36 16  1  0  0  0  0
 39 17  1  0  0  0  0
 40 18  1  0  0  0  0
 43 19  1  0  0  0  0
 44 19  1  0  0  0  0
 46 21  1  0  0  0  0
 47 21  1  0  0  0  0
 49 22  1  0  0  0  0
 51 22  1  0  0  0  0
 52 23  1  0  0  0  0
 56 25  1  0  0  0  0
 58 26  1  0  0  0  0
 60 26  1  0  0  0  0
 62 27  1  0  0  0  0
 63 27  1  0  0  0  0
M  END
