1,3,4
 OpenBabel05122313063D

 41 42  0  0  0  0  0  0  0  0999 V2000
   -1.2666    0.9902    0.1389 O   0  5  0  0  0  0  0  0  0  0  0  0
   -4.7477    3.0014   -0.0127 O   0  0  0  0  0  0  0  0  0  0  0  0
    0.0820   -1.5639    0.0874 N   0  0  0  0  0  2  0  0  0  0  0  0
    2.5883   -0.4191   -0.1466 N   0  0  0  0  0  0  0  0  0  0  0  0
   -2.3226    0.2425    0.0582 C   0  0  0  0  0  0  0  0  0  0  0  0
   -2.3383   -1.2100    0.0276 C   0  0  0  0  0  0  0  0  0  0  0  0
   -3.5829   -1.8997   -0.0356 C   0  0  0  0  0  3  0  0  0  0  0  0
   -3.5564   -3.0026   -0.0498 H   0  0  0  0  0  0  0  0  0  0  0  0
   -4.8169   -1.2506   -0.0797 C   0  0  0  0  0  0  0  0  0  0  0  0
   -4.7929    0.1629   -0.0560 C   0  0  0  0  0  0  0  0  0  0  0  0
   -5.7270    0.7492   -0.0884 H   0  0  0  0  0  0  0  0  0  0  0  0
   -3.6089    0.9007    0.0091 C   0  0  0  0  0  0  0  0  0  0  0  0
   -3.6903    2.3836    0.0240 C   0  0  0  0  0  0  0  0  0  0  0  0
   -2.6987    2.9109    0.0699 H   0  0  0  0  0  0  0  0  0  0  0  0
   -1.1492   -2.0073    0.0842 C   0  0  0  0  0  0  0  0  0  0  0  0
   -1.2936   -3.1061    0.1351 H   0  0  0  0  0  0  0  0  0  0  0  0
    1.2229   -2.4548    0.2712 C   0  0  0  0  0  0  0  0  0  0  0  0
    1.4518   -2.5374    1.3578 H   0  0  0  0  0  0  0  0  0  0  0  0
    1.0057   -3.4828   -0.0941 H   0  0  0  0  0  0  0  0  0  0  0  0
    2.4086   -1.8681   -0.4799 C   0  0  0  0  0  0  0  0  0  0  0  0
    2.2114   -1.9210   -1.5687 H   0  0  0  0  0  0  0  0  0  0  0  0
    3.3318   -2.4478   -0.2725 H   0  0  0  0  0  0  0  0  0  0  0  0
    3.2635   -0.1970    1.1764 C   0  0  0  0  0  0  0  0  0  0  0  0
    2.6845   -0.7348    1.9526 H   0  0  0  0  0  0  0  0  0  0  0  0
    3.1469    0.8878    1.3767 H   0  0  0  0  0  0  0  0  0  0  0  0
    4.7415   -0.5996    1.1875 C   0  0  0  0  0  0  0  0  0  0  0  0
    5.1577   -0.3427    2.1834 H   0  0  0  0  0  0  0  0  0  0  0  0
    4.8500   -1.7026    1.0890 H   0  0  0  0  0  0  0  0  0  0  0  0
    5.5159    0.1052    0.0678 C   0  0  0  0  0  0  0  0  0  0  0  0
    6.5704   -0.2383    0.0427 H   0  0  0  0  0  0  0  0  0  0  0  0
    5.5403    1.1975    0.2752 H   0  0  0  0  0  0  0  0  0  0  0  0
    4.8302   -0.1307   -1.2830 C   0  0  0  0  0  0  0  0  0  0  0  0
    4.9293   -1.1980   -1.5822 H   0  0  0  0  0  0  0  0  0  0  0  0
    5.3211    0.4583   -2.0849 H   0  0  0  0  0  0  0  0  0  0  0  0
    3.3587    0.2857   -1.2247 C   0  0  0  0  0  0  0  0  0  0  0  0
    3.2547    1.3674   -1.0030 H   0  0  0  0  0  0  0  0  0  0  0  0
    2.8315    0.0983   -2.1805 H   0  0  0  0  0  0  0  0  0  0  0  0
   -6.1210   -2.0041   -0.1489 C   0  0  0  0  0  0  0  0  0  0  0  0
   -5.9608   -3.0999   -0.1532 H   0  0  0  0  0  0  0  0  0  0  0  0
   -6.6914   -1.7420   -1.0646 H   0  0  0  0  0  0  0  0  0  0  0  0
   -6.7751   -1.7608    0.7143 H   0  0  0  0  0  0  0  0  0  0  0  0
  2 13  2  0  0  0  0
  3 17  1  0  0  0  0
  4 23  1  0  0  0  0
  5  1  1  0  0  0  0
  6  5  1  0  0  0  0
  6 15  2  0  0  0  0
  7  6  1  0  0  0  0
  8  7  1  0  0  0  0
  9 10  2  0  0  0  0
  9  7  1  0  0  0  0
 10 12  1  0  0  0  0
 11 10  1  0  0  0  0
 12 13  1  0  0  0  0
 12  5  2  0  0  0  0
 13 14  1  0  0  0  0
 15  3  1  0  0  0  0
 15 16  1  0  0  0  0
 17 18  1  0  0  0  0
 19 17  1  0  0  0  0
 20 22  1  0  0  0  0
 20  4  1  0  0  0  0
 20 17  1  0  0  0  0
 21 20  1  0  0  0  0
 23 26  1  0  0  0  0
 23 25  1  0  0  0  0
 23 24  1  0  0  0  0
 26 27  1  0  0  0  0
 28 26  1  0  0  0  0
 29 31  1  0  0  0  0
 29 26  1  0  0  0  0
 30 29  1  0  0  0  0
 32 35  1  0  0  0  0
 32 29  1  0  0  0  0
 33 32  1  0  0  0  0
 34 32  1  0  0  0  0
 35 36  1  0  0  0  0
 35  4  1  0  0  0  0
 37 35  1  0  0  0  0
 38  9  1  0  0  0  0
 38 41  1  0  0  0  0
 39 38  1  0  0  0  0
 40 38  1  0  0  0  0
M  CHG  1   1  -1
M  END
