2,3,17
 OpenBabel05122313063D

 36 38  0  0  0  0  0  0  0  0999 V2000
   -8.2112    4.8176   -0.2561 Br  0  0  0  0  0  0  0  0  0  0  0  0
   -1.1607   -1.1206   -0.6739 O   0  5  0  0  0  0  0  0  0  0  0  0
   -0.7855   -2.0465    1.5996 N   0  0  0  0  0  2  0  0  0  0  0  0
   -4.8535    1.6590    0.7300 C   0  0  0  0  0  0  0  0  0  0  0  0
   -6.7270    3.0617    1.4503 C   0  0  0  0  0  0  0  0  0  0  0  0
   -7.4093    3.4270    2.2303 H   0  0  0  0  0  0  0  0  0  0  0  0
   -2.9802    0.2616   -0.0023 C   0  0  0  0  0  0  0  0  0  0  0  0
   -4.9964    2.1629   -0.6166 C   0  0  0  0  0  0  0  0  0  0  0  0
   -3.1224    0.7630   -1.3341 C   0  0  0  0  0  0  0  0  0  0  0  0
   -2.4341    0.4001   -2.1096 H   0  0  0  0  0  0  0  0  0  0  0  0
    0.7953   -3.5189    2.4036 C   0  0  0  0  0  0  0  0  0  0  0  0
   -0.9230   -2.4454    4.0484 C   0  0  0  0  0  0  0  0  0  0  0  0
   -1.2860   -3.3994    4.4846 H   0  0  0  0  0  0  0  0  0  0  0  0
   -1.7687   -1.7381    3.9809 H   0  0  0  0  0  0  0  0  0  0  0  0
   -0.1681   -2.0291    4.7478 H   0  0  0  0  0  0  0  0  0  0  0  0
   -1.7980   -1.1835    1.5582 N   0  0  0  0  0  0  0  0  0  0  0  0
    1.1927   -3.5442    1.0851 N   0  0  0  0  0  2  0  0  0  0  0  0
   -1.9315   -0.7216    0.2931 C   0  0  0  0  0  0  0  0  0  0  0  0
   -0.3395   -2.6534    2.6913 C   0  0  0  0  0  0  0  0  0  0  0  0
    2.2434   -4.2872    0.7018 C   0  0  0  0  0  0  0  0  0  0  0  0
    2.5140   -4.2410   -0.3634 H   0  0  0  0  0  0  0  0  0  0  0  0
   -5.7417    2.1346    1.7418 C   0  0  0  0  0  0  0  0  0  0  0  0
   -5.6336    1.7528    2.7686 H   0  0  0  0  0  0  0  0  0  0  0  0
   -6.8564    3.5493    0.1189 C   0  0  0  0  0  0  0  0  0  0  0  0
   -4.1048    1.6879   -1.6281 C   0  0  0  0  0  0  0  0  0  0  0  0
   -4.2130    2.0754   -2.6525 H   0  0  0  0  0  0  0  0  0  0  0  0
   -6.0135    3.1146   -0.8976 C   0  0  0  0  0  0  0  0  0  0  0  0
   -6.1279    3.5033   -1.9196 H   0  0  0  0  0  0  0  0  0  0  0  0
   -3.8380    0.7113    1.0081 C   0  0  0  0  0  0  0  0  0  0  0  0
   -3.7175    0.3230    2.0296 H   0  0  0  0  0  0  0  0  0  0  0  0
    1.4857   -4.2892    3.3601 C   0  0  0  0  0  0  0  0  0  0  0  0
    1.1622   -4.2635    4.4095 H   0  0  0  0  0  0  0  0  0  0  0  0
    2.5768   -5.0687    2.9598 C   0  0  0  0  0  0  0  0  0  0  0  0
    3.1249   -5.6714    3.6988 H   0  0  0  0  0  0  0  0  0  0  0  0
    2.9672   -5.0690    1.6115 C   0  0  0  0  0  0  0  0  0  0  0  0
    3.8232   -5.6604    1.2590 H   0  0  0  0  0  0  0  0  0  0  0  0
  1 24  1  0  0  0  0
  2 18  1  0  0  0  0
  3 19  1  0  0  0  0
  4 29  1  0  0  0  0
  4 22  2  0  0  0  0
  5 22  1  0  0  0  0
  5  6  1  0  0  0  0
  7 18  1  0  0  0  0
  7 29  2  0  0  0  0
  8  4  1  0  0  0  0
  9  7  1  0  0  0  0
 10  9  1  0  0  0  0
 11 19  2  0  0  0  0
 11 31  1  0  0  0  0
 12 13  1  0  0  0  0
 12 15  1  0  0  0  0
 14 12  1  0  0  0  0
 16  3  1  0  0  0  0
 17 11  1  0  0  0  0
 18 16  2  0  0  0  0
 19 12  1  0  0  0  0
 20 17  1  0  0  0  0
 20 35  2  0  0  0  0
 21 20  1  0  0  0  0
 22 23  1  0  0  0  0
 24  5  2  0  0  0  0
 25  9  2  0  0  0  0
 25  8  1  0  0  0  0
 26 25  1  0  0  0  0
 27  8  2  0  0  0  0
 27 24  1  0  0  0  0
 28 27  1  0  0  0  0
 29 30  1  0  0  0  0
 31 32  1  0  0  0  0
 33 31  2  0  0  0  0
 33 34  1  0  0  0  0
 35 33  1  0  0  0  0
 36 35  1  0  0  0  0
M  CHG  1   2  -1
M  END
