1,2,3
 OpenBabel05122313063D

 27 28  0  0  1  0  0  0  0  0999 V2000
    1.7560    1.1374   -0.3132 O   0  5  0  0  0  0  0  0  0  0  0  0
    0.7557   -1.3702    0.6919 N   0  0  0  0  0  2  0  0  0  0  0  0
   -1.5124   -0.9152   -0.5945 N   0  0  0  0  0  2  0  0  0  0  0  0
    2.9172    0.5629   -0.1722 C   0  0  0  0  0  0  0  0  0  0  0  0
    4.0980    1.2872   -0.5295 C   0  0  0  0  0  0  0  0  0  0  0  0
    3.9552    2.3133   -0.8997 H   0  0  0  0  0  0  0  0  0  0  0  0
    5.3676    0.7361   -0.4028 C   0  0  0  0  0  0  0  0  0  0  0  0
    6.2472    1.3385   -0.6801 H   0  0  0  0  0  0  0  0  0  0  0  0
    5.5461   -0.5851    0.0746 C   0  0  0  0  0  0  0  0  0  0  0  0
    6.5532   -1.0155    0.1688 H   0  0  0  0  0  0  0  0  0  0  0  0
    4.4226   -1.3269    0.4133 C   0  0  0  0  0  0  0  0  0  0  0  0
    4.5349   -2.3624    0.7754 H   0  0  0  0  0  0  0  0  0  0  0  0
    3.1044   -0.7947    0.3128 C   0  0  0  0  0  0  0  0  0  0  0  0
    2.0183   -1.6831    0.6367 C   0  0  0  0  0  3  0  0  0  0  0  0
    2.3119   -2.7398    0.8394 H   0  0  0  0  0  0  0  0  0  0  0  0
   -0.2600   -2.3698    0.9149 C   0  0  0  0  0  0  0  0  0  0  0  0
   -0.6335   -2.2892    1.9640 H   0  0  0  0  0  0  0  0  0  0  0  0
    0.1170   -3.4108    0.7865 H   0  0  0  0  0  0  0  0  0  0  0  0
   -1.4520   -2.1252   -0.0037 C   0  0  1  0  0  3  0  0  0  0  0  0
   -2.4641   -3.0791   -0.1924 C   0  0  0  0  0  0  0  0  0  0  0  0
   -2.3899   -4.0647    0.2913 H   0  0  0  0  0  0  0  0  0  0  0  0
   -3.5631   -2.7482   -0.9969 C   0  0  0  0  0  0  0  0  0  0  0  0
   -4.3716   -3.4774   -1.1568 H   0  0  0  0  0  0  0  0  0  0  0  0
   -3.6223   -1.4782   -1.5898 C   0  0  0  0  0  0  0  0  0  0  0  0
   -4.4727   -1.1773   -2.2173 H   0  0  0  0  0  0  0  0  0  0  0  0
   -2.5681   -0.5872   -1.3618 C   0  0  0  0  0  0  0  0  0  0  0  0
   -2.5429    0.4208   -1.8029 H   0  0  0  0  0  0  0  0  0  0  0  0
  1  4  1  0  0  0  0
  2 16  1  0  0  0  0
  3 19  1  0  0  0  0
  4 13  1  0  0  0  0
  5  7  1  0  0  0  0
  5  4  2  0  0  0  0
  6  5  1  0  0  0  0
  7  9  2  0  0  0  0
  8  7  1  0  0  0  0
  9 10  1  0  0  0  0
  9 11  1  0  0  0  0
 11 12  1  0  0  0  0
 13 11  2  0  0  0  0
 13 14  1  0  0  0  0
 14  2  1  0  0  0  0
 14 15  1  0  0  0  0
 16 17  1  0  0  0  0
 18 16  1  0  0  0  0
 19 16  1  1  0  0  0
 20 19  1  0  0  0  0
 20 21  1  0  0  0  0
 22 20  2  0  0  0  0
 23 22  1  0  0  0  0
 24 26  2  0  0  0  0
 24 22  1  0  0  0  0
 25 24  1  0  0  0  0
 26  3  1  0  0  0  0
 27 26  1  0  0  0  0
M  CHG  1   1  -1
M  END
