2,5,7
 OpenBabel05122313063D

 30 30  0  0  0  0  0  0  0  0999 V2000
   -0.2240    3.6373   -3.1253 S   0  0  0  0  0  0  0  0  0  0  0  0
    0.5800   -0.6832    1.2389 O   0  5  0  0  0  0  0  0  0  0  0  0
    6.5679   -1.1406    0.2282 O   0  0  0  0  0  0  0  0  0  0  0  0
    3.4093   -2.5602    2.2346 N   0  0  0  0  0  0  0  0  0  0  0  0
    1.4968    1.1084   -0.7631 N   0  0  0  0  0  2  0  0  0  0  0  0
    1.4345    2.0546   -1.7078 N   0  0  0  0  0  0  0  0  0  0  0  0
   -0.8207    1.8449   -1.2016 N   0  0  0  0  0  2  0  0  0  0  0  0
   -1.7967    2.1096   -1.3621 H   0  0  0  0  0  0  0  0  0  0  0  0
    4.2145   -1.0038    0.6353 C   0  0  0  0  0  0  0  0  0  0  0  0
    2.8937   -0.4761    0.4595 C   0  0  0  0  0  0  0  0  0  0  0  0
    4.4490   -2.0403    1.5236 C   0  0  0  0  0  3  0  0  0  0  0  0
    5.4456   -2.4679    1.6754 H   0  0  0  0  0  0  0  0  0  0  0  0
    2.1292   -2.1232    2.1403 C   0  0  0  0  0  0  0  0  0  0  0  0
    1.8137   -1.0486    1.2525 C   0  0  0  0  0  0  0  0  0  0  0  0
    5.3878   -0.4601   -0.1467 C   0  0  0  0  0  0  0  0  0  0  0  0
    5.1676   -0.5740   -1.2377 H   0  0  0  0  0  0  0  0  0  0  0  0
    5.4620    0.6403    0.0426 H   0  0  0  0  0  0  0  0  0  0  0  0
    2.6788    0.5740   -0.4854 C   0  0  0  0  0  3  0  0  0  0  0  0
    3.5211    0.9781   -1.0706 H   0  0  0  0  0  0  0  0  0  0  0  0
    0.1442    2.4076   -1.9088 C   0  0  0  0  0  0  0  0  0  0  0  0
    1.0540   -2.7612    2.9518 C   0  0  0  0  0  0  0  0  0  0  0  0
    1.4349   -3.5932    3.5762 H   0  0  0  0  0  0  0  0  0  0  0  0
    0.2510   -3.1392    2.2855 H   0  0  0  0  0  0  0  0  0  0  0  0
    0.5665   -2.0070    3.6037 H   0  0  0  0  0  0  0  0  0  0  0  0
    1.4195    3.9259   -3.8489 C   0  0  0  0  0  0  0  0  0  0  0  0
    2.1268    4.2795   -3.0772 H   0  0  0  0  0  0  0  0  0  0  0  0
    1.2699    4.7056   -4.6200 H   0  0  0  0  0  0  0  0  0  0  0  0
    1.8096    3.0011   -4.3119 H   0  0  0  0  0  0  0  0  0  0  0  0
    3.5971   -3.3332    2.8786 H   0  0  0  0  0  0  0  0  0  0  0  0
    7.2951   -0.7935   -0.3155 H   0  0  0  0  0  0  0  0  0  0  0  0
  1 20  1  0  0  0  0
  2 14  1  0  0  0  0
  4 29  1  0  0  0  0
  5 18  1  0  0  0  0
  6  5  1  0  0  0  0
  8  7  1  0  0  0  0
  9 11  1  0  0  0  0
 10  9  2  0  0  0  0
 10 14  1  0  0  0  0
 11 12  1  0  0  0  0
 11  4  1  0  0  0  0
 13  4  1  0  0  0  0
 13 21  1  0  0  0  0
 14 13  2  0  0  0  0
 15 17  1  0  0  0  0
 15  3  1  0  0  0  0
 15  9  1  0  0  0  0
 16 15  1  0  0  0  0
 18 10  1  0  0  0  0
 19 18  1  0  0  0  0
 20  6  2  0  0  0  0
 20  7  1  0  0  0  0
 21 22  1  0  0  0  0
 21 24  1  0  0  0  0
 23 21  1  0  0  0  0
 25  1  1  0  0  0  0
 25 26  1  0  0  0  0
 27 25  1  0  0  0  0
 28 25  1  0  0  0  0
 30  3  1  0  0  0  0
M  CHG  1   2  -1
M  END
