1,3,4
 OpenBabel05122313063D

 22 23  0  0  0  0  0  0  0  0999 V2000
   -0.1963    1.3528   -1.6369 O   0  5  0  0  0  0  0  0  0  0  0  0
    1.0269    2.7861   -2.8808 O   0  0  0  0  0  0  0  0  0  0  0  0
    1.8040    0.4045   -0.4219 N   0  0  0  0  0  2  0  0  0  0  0  0
    0.6392   -1.2840    1.0233 N   0  0  0  0  0  2  0  0  0  0  0  0
    2.0062   -1.3143    1.1432 C   0  0  0  0  0  0  0  0  0  0  0  0
    2.6905   -0.3371    0.2804 C   0  0  0  0  0  0  0  0  0  0  0  0
   -0.1127   -2.1412    1.7351 C   0  0  0  0  0  0  0  0  0  0  0  0
   -1.2012   -2.0787    1.5881 H   0  0  0  0  0  0  0  0  0  0  0  0
    0.9364    1.9027   -2.0471 C   0  0  0  0  0  0  0  0  0  0  0  0
    2.1503    1.3072   -1.3495 C   0  0  0  0  0  0  0  0  0  0  0  0
    0.4538   -3.0745    2.6118 C   0  0  0  0  0  0  0  0  0  0  0  0
   -0.1978   -3.7601    3.1712 H   0  0  0  0  0  0  0  0  0  0  0  0
    2.6336   -2.2240    2.0069 C   0  0  0  0  0  0  0  0  0  0  0  0
    3.7293   -2.2356    2.0885 H   0  0  0  0  0  0  0  0  0  0  0  0
    1.8490   -3.1156    2.7497 C   0  0  0  0  0  0  0  0  0  0  0  0
    2.3239   -3.8399    3.4273 H   0  0  0  0  0  0  0  0  0  0  0  0
    4.0636   -0.1156    0.0812 C   0  0  0  0  0  0  0  0  0  0  0  0
    4.8131   -0.6985    0.6341 H   0  0  0  0  0  0  0  0  0  0  0  0
    4.4610    0.8542   -0.8581 C   0  0  0  0  0  0  0  0  0  0  0  0
    5.5328    1.0337   -1.0280 H   0  0  0  0  0  0  0  0  0  0  0  0
    3.5022    1.5746   -1.5930 C   0  0  0  0  0  0  0  0  0  0  0  0
    3.7687    2.3212   -2.3553 H   0  0  0  0  0  0  0  0  0  0  0  0
  2  9  2  0  0  0  0
  3  6  1  0  0  0  0
  4  5  1  0  0  0  0
  4  7  1  0  0  0  0
  5 13  1  0  0  0  0
  6  5  2  0  0  0  0
  7 11  2  0  0  0  0
  8  7  1  0  0  0  0
  9  1  1  0  0  0  0
  9 10  1  0  0  0  0
 10  3  1  0  0  0  0
 11 15  1  0  0  0  0
 11 12  1  0  0  0  0
 13 14  1  0  0  0  0
 13 15  2  0  0  0  0
 15 16  1  0  0  0  0
 17  6  1  0  0  0  0
 17 18  1  0  0  0  0
 19 17  2  0  0  0  0
 20 19  1  0  0  0  0
 21 10  2  0  0  0  0
 21 19  1  0  0  0  0
 22 21  1  0  0  0  0
M  CHG  1   1  -1
M  END
