1,2,4
 OpenBabel05122313063D

 34 37  0  0  1  0  0  0  0  0999 V2000
    1.2088   -2.1669    0.5671 O   0  5  0  0  0  0  0  0  0  0  0  0
   -0.0409    0.0621   -0.0473 N   0  0  0  0  0  2  0  0  0  0  0  0
    1.0274    1.9951    0.0432 N   0  0  0  0  0  0  0  0  0  0  0  0
   -2.4623   -0.7861   -0.0310 N   0  0  0  0  0  2  0  0  0  0  0  0
    2.3248   -1.5692    0.2424 C   0  0  0  0  0  0  0  0  0  0  0  0
    3.5334   -2.3239    0.2386 C   0  0  0  0  0  0  0  0  0  0  0  0
    4.7491   -1.7538   -0.1273 C   0  0  0  0  0  0  0  0  0  0  0  0
    4.8175   -0.3995   -0.5191 C   0  0  0  0  0  0  0  0  0  0  0  0
    3.6601    0.3766   -0.4977 C   0  0  0  0  0  0  0  0  0  0  0  0
    2.4098   -0.1614   -0.0896 C   0  0  0  0  0  0  0  0  0  0  0  0
    1.1852    0.6068   -0.0278 C   0  0  2  0  0  3  0  0  0  0  0  0
   -1.0011    1.0406   -0.0489 C   0  0  0  0  0  0  0  0  0  0  0  0
   -0.3645    2.2923    0.0044 C   0  0  0  0  0  0  0  0  0  0  0  0
   -0.7740    3.6491    0.0528 C   0  0  0  0  0  0  0  0  0  0  0  0
    0.1704    4.6497    0.1847 C   0  0  0  0  0  0  0  0  0  0  0  0
    1.5540    4.3082    0.3027 C   0  0  0  0  0  0  0  0  0  0  0  0
    1.9599    2.9976    0.2383 C   0  0  0  0  0  0  0  0  0  0  0  0
   -2.3740    0.5722   -0.0983 C   0  0  2  0  0  3  0  0  0  0  0  0
   -3.5351    1.3669   -0.2022 C   0  0  0  0  0  0  0  0  0  0  0  0
   -4.7830    0.7383   -0.2327 C   0  0  0  0  0  0  0  0  0  0  0  0
   -4.8549   -0.6628   -0.1521 C   0  0  0  0  0  0  0  0  0  0  0  0
   -3.6623   -1.3883   -0.0471 C   0  0  0  0  0  0  0  0  0  0  0  0
    3.4525   -3.3840    0.5183 H   0  0  0  0  0  0  0  0  0  0  0  0
    5.6595   -2.3731   -0.1321 H   0  0  0  0  0  0  0  0  0  0  0  0
    5.7679    0.0389   -0.8555 H   0  0  0  0  0  0  0  0  0  0  0  0
    3.7184    1.4095   -0.8671 H   0  0  0  0  0  0  0  0  0  0  0  0
   -1.8448    3.8845    0.0012 H   0  0  0  0  0  0  0  0  0  0  0  0
   -0.1395    5.7033    0.2245 H   0  0  0  0  0  0  0  0  0  0  0  0
    2.3127    5.0859    0.4640 H   0  0  0  0  0  0  0  0  0  0  0  0
    2.9986    2.6770    0.3673 H   0  0  0  0  0  0  0  0  0  0  0  0
   -3.4561    2.4600   -0.2643 H   0  0  0  0  0  0  0  0  0  0  0  0
   -5.7002    1.3404   -0.3165 H   0  0  0  0  0  0  0  0  0  0  0  0
   -5.8186   -1.1902   -0.1648 H   0  0  0  0  0  0  0  0  0  0  0  0
   -3.6364   -2.4849    0.0437 H   0  0  0  0  0  0  0  0  0  0  0  0
  2 11  1  0  0  0  0
  3 17  1  0  0  0  0
  5  1  1  0  0  0  0
  6  5  1  0  0  0  0
  6 23  1  0  0  0  0
  7  6  2  0  0  0  0
  8  9  2  0  0  0  0
  8  7  1  0  0  0  0
  9 10  1  0  0  0  0
 10  5  2  0  0  0  0
 11 10  1  6  0  0  0
 11  3  1  0  0  0  0
 12  2  1  0  0  0  0
 12 13  2  0  0  0  0
 13  3  1  0  0  0  0
 13 14  1  0  0  0  0
 14 15  2  0  0  0  0
 15 28  1  0  0  0  0
 15 16  1  0  0  0  0
 16 29  1  0  0  0  0
 17 16  2  0  0  0  0
 17 30  1  0  0  0  0
 18 12  1  1  0  0  0
 18  4  1  0  0  0  0
 19 18  1  0  0  0  0
 20 19  2  0  0  0  0
 20 21  1  0  0  0  0
 21 22  2  0  0  0  0
 22  4  1  0  0  0  0
 22 34  1  0  0  0  0
 24  7  1  0  0  0  0
 25  8  1  0  0  0  0
 26  9  1  0  0  0  0
 27 14  1  0  0  0  0
 31 19  1  0  0  0  0
 32 20  1  0  0  0  0
 33 21  1  0  0  0  0
M  CHG  1   1  -1
M  END
