1,2,5
 OpenBabel05122313063D

 29 30  0  0  1  0  0  0  0  0999 V2000
    1.4382   -1.0352    0.0001 O   0  0  0  0  0  1  0  0  0  0  0  0
   -2.3862    0.1478   -0.0001 N   0  0  0  0  0  2  0  0  0  0  0  0
   -1.2699    2.1752    0.0005 N   0  0  0  0  0  0  0  0  0  0  0  0
   -1.2071    3.1949   -0.0004 H   0  0  0  0  0  0  0  0  0  0  0  0
   -0.1208    1.4252    0.0003 N   0  0  0  0  0  2  0  0  0  0  0  0
   -2.4721    1.5183    0.0000 C   0  0  2  0  0  3  0  0  0  0  0  0
   -3.7185    2.1802   -0.0003 C   0  0  0  0  0  0  0  0  0  0  0  0
   -3.7554    3.2788   -0.0003 H   0  0  0  0  0  0  0  0  0  0  0  0
   -4.8797    1.4103   -0.0007 C   0  0  0  0  0  0  0  0  0  0  0  0
   -5.8619    1.9049   -0.0010 H   0  0  0  0  0  0  0  0  0  0  0  0
   -4.7853    0.0021   -0.0007 C   0  0  0  0  0  0  0  0  0  0  0  0
   -5.6820   -0.6319   -0.0009 H   0  0  0  0  0  0  0  0  0  0  0  0
   -3.5276   -0.5911   -0.0004 C   0  0  0  0  0  0  0  0  0  0  0  0
   -3.3523   -1.6792   -0.0004 H   0  0  0  0  0  0  0  0  0  0  0  0
    1.0695    1.9932    0.0004 C   0  0  0  0  0  0  0  0  0  0  0  0
    1.1124    3.0991    0.0006 H   0  0  0  0  0  0  0  0  0  0  0  0
    2.3061    1.2762    0.0002 C   0  0  0  0  0  0  0  0  0  0  0  0
    2.4246   -0.1709    0.0000 C   0  0  1  0  0  3  0  0  0  0  0  0
    3.7419   -0.7246   -0.0003 C   0  0  0  0  0  0  0  0  0  0  0  0
    3.8019   -1.8229   -0.0005 H   0  0  0  0  0  0  0  0  0  0  0  0
    4.8938    0.0557   -0.0004 C   0  0  0  0  0  0  0  0  0  0  0  0
    4.7623    1.4760   -0.0002 C   0  0  0  0  0  0  0  0  0  0  0  0
    5.6626    2.1088   -0.0003 H   0  0  0  0  0  0  0  0  0  0  0  0
    3.5062    2.0539    0.0001 C   0  0  0  0  0  0  0  0  0  0  0  0
    3.4103    3.1519    0.0002 H   0  0  0  0  0  0  0  0  0  0  0  0
    6.2632   -0.5716   -0.0006 C   0  0  0  0  0  0  0  0  0  0  0  0
    6.8459   -0.2550    0.8900 H   0  0  0  0  0  0  0  0  0  0  0  0
    6.8464   -0.2534   -0.8904 H   0  0  0  0  0  0  0  0  0  0  0  0
    6.2098   -1.6767   -0.0016 H   0  0  0  0  0  0  0  0  0  0  0  0
  2  6  1  0  0  0  0
  4  3  1  0  0  0  0
  5 15  1  0  0  0  0
  5  3  1  0  0  0  0
  6  3  1  1  0  0  0
  7  8  1  0  0  0  0
  7  6  1  0  0  0  0
  9  7  2  0  0  0  0
 10  9  1  0  0  0  0
 11  9  1  0  0  0  0
 11 13  2  0  0  0  0
 12 11  1  0  0  0  0
 13  2  1  0  0  0  0
 14 13  1  0  0  0  0
 15 16  1  0  0  0  0
 17 15  2  0  0  0  0
 18  1  1  1  0  0  0
 18 17  1  0  0  0  0
 19 18  1  0  0  0  0
 20 19  1  0  0  0  0
 21 19  2  0  0  0  0
 21 22  1  0  0  0  0
 22 24  2  0  0  0  0
 23 22  1  0  0  0  0
 24 17  1  0  0  0  0
 24 25  1  0  0  0  0
 26 21  1  0  0  0  0
 26 27  1  0  0  0  0
 28 26  1  0  0  0  0
 29 26  1  0  0  0  0
M  END
