1,3,10
 OpenBabel05122313063D

 35 36  0  0  1  0  0  0  0  0999 V2000
    2.3361    0.8943   -0.1106 O   0  0  0  0  0  1  0  0  0  0  0  0
   -2.8546   -3.3170   -0.0025 O   0  0  0  0  0  0  0  0  0  0  0  0
    0.3436   -0.7363   -0.0854 N   0  0  0  0  0  2  0  0  0  0  0  0
   -5.9151    0.1016   -0.0059 O   0  0  0  0  0  0  0  0  0  0  0  0
   -4.0492    2.0902    0.0574 C   0  0  0  0  0  0  0  0  0  0  0  0
   -5.1460    2.1640    0.1550 H   0  0  0  0  0  0  0  0  0  0  0  0
   -3.5512    2.5926    0.9103 H   0  0  0  0  0  0  0  0  0  0  0  0
   -3.7214    2.5767   -0.8827 H   0  0  0  0  0  0  0  0  0  0  0  0
   -4.4056   -1.6158   -0.0287 N   0  0  0  0  0  0  0  0  0  0  0  0
   -1.4966    1.3246    0.0494 N   0  0  0  0  0  2  0  0  0  0  0  0
   -3.6957    0.6707    0.0479 N   0  0  0  0  0  0  0  0  0  0  0  0
    1.6136   -1.2297    0.0905 N   0  0  0  0  0  0  0  0  0  0  0  0
    1.7494   -2.2201    0.3206 H   0  0  0  0  0  0  0  0  0  0  0  0
   -2.0293   -1.0902    0.0271 C   0  0  0  0  0  0  0  0  0  0  0  0
   -2.3432    0.3317    0.0512 C   0  0  0  0  0  0  0  0  0  0  0  0
    5.0470    0.1117    0.2762 C   0  0  0  0  0  0  0  0  0  0  0  0
    4.7732    1.1544    0.4902 H   0  0  0  0  0  0  0  0  0  0  0  0
   -0.7137   -1.5408    0.0124 C   0  0  0  0  0  0  0  0  0  0  0  0
   -0.5619   -2.6351    0.0610 H   0  0  0  0  0  0  0  0  0  0  0  0
   -4.7497   -0.2665    0.0008 C   0  0  0  0  0  0  0  0  0  0  0  0
   -3.0921   -2.1124   -0.0103 C   0  0  0  0  0  0  0  0  0  0  0  0
    2.6357   -0.3391   -0.0250 C   0  0  2  0  0  3  0  0  0  0  0  0
    4.0243   -0.8190   -0.0179 C   0  0  0  0  0  0  0  0  0  0  0  0
    4.3605   -2.1624   -0.3095 C   0  0  0  0  0  0  0  0  0  0  0  0
    3.5867   -2.8916   -0.5968 H   0  0  0  0  0  0  0  0  0  0  0  0
   -5.5221   -2.5663   -0.0712 C   0  0  0  0  0  0  0  0  0  0  0  0
   -6.1838   -2.4105    0.8015 H   0  0  0  0  0  0  0  0  0  0  0  0
   -6.1166   -2.4141   -0.9918 H   0  0  0  0  0  0  0  0  0  0  0  0
   -5.0896   -3.5806   -0.0540 H   0  0  0  0  0  0  0  0  0  0  0  0
    6.7095   -1.6408    0.0218 C   0  0  0  0  0  0  0  0  0  0  0  0
    7.7610   -1.9640    0.0387 H   0  0  0  0  0  0  0  0  0  0  0  0
    6.3827   -0.3021    0.2973 C   0  0  0  0  0  0  0  0  0  0  0  0
    7.1767    0.4222    0.5308 H   0  0  0  0  0  0  0  0  0  0  0  0
    5.6985   -2.5684   -0.2846 C   0  0  0  0  0  0  0  0  0  0  0  0
    5.9579   -3.6111   -0.5187 H   0  0  0  0  0  0  0  0  0  0  0  0
  3 18  1  0  0  0  0
  3 12  1  0  0  0  0
  4 20  2  0  0  0  0
  5  6  1  0  0  0  0
  5  7  1  0  0  0  0
  8  5  1  0  0  0  0
  9 21  1  0  0  0  0
  9 20  1  0  0  0  0
 10 15  2  0  0  0  0
 11 15  1  0  0  0  0
 11  5  1  0  0  0  0
 12 13  1  0  0  0  0
 14 15  1  0  0  0  0
 16 32  1  0  0  0  0
 16 17  1  0  0  0  0
 18 14  2  0  0  0  0
 18 19  1  0  0  0  0
 20 11  1  0  0  0  0
 21  2  2  0  0  0  0
 21 14  1  0  0  0  0
 22  1  1  1  0  0  0
 22 23  1  0  0  0  0
 22 12  1  0  0  0  0
 23 16  2  0  0  0  0
 24 34  2  0  0  0  0
 24 23  1  0  0  0  0
 25 24  1  0  0  0  0
 26 29  1  0  0  0  0
 26  9  1  0  0  0  0
 26 27  1  0  0  0  0
 28 26  1  0  0  0  0
 30 31  1  0  0  0  0
 30 32  2  0  0  0  0
 32 33  1  0  0  0  0
 34 30  1  0  0  0  0
 35 34  1  0  0  0  0
M  END
