1,2,3
 OpenBabel05122313063D

 40 41  0  0  1  0  0  0  0  0999 V2000
   -0.3471   -0.7765    1.0906 O   0  5  0  0  0  0  0  0  0  0  0  0
    1.0509    1.6535    0.9609 N   0  0  0  0  0  2  0  0  0  0  0  0
    2.3072    0.8344   -1.2241 N   0  0  0  0  0  0  0  0  0  0  0  0
    3.2798    0.5036   -1.1142 H   0  0  0  0  0  0  0  0  0  0  0  0
    2.0274    0.5978   -2.1878 H   0  0  0  0  0  0  0  0  0  0  0  0
   -1.1883   -0.0971    1.8383 C   0  0  0  0  0  0  0  0  0  0  0  0
   -2.3729   -0.7745    2.2817 C   0  0  0  0  0  0  0  0  0  0  0  0
   -3.2795   -0.0984    3.1006 C   0  0  0  0  0  0  0  0  0  0  0  0
   -4.1929   -0.6291    3.4136 H   0  0  0  0  0  0  0  0  0  0  0  0
   -3.0718    1.2342    3.5256 C   0  0  0  0  0  0  0  0  0  0  0  0
   -3.8091    1.7316    4.1710 H   0  0  0  0  0  0  0  0  0  0  0  0
   -1.9320    1.9025    3.1059 C   0  0  0  0  0  0  0  0  0  0  0  0
   -1.7538    2.9469    3.4066 H   0  0  0  0  0  0  0  0  0  0  0  0
   -0.9801    1.2655    2.2575 C   0  0  0  0  0  0  0  0  0  0  0  0
    0.1423    2.0374    1.8172 C   0  0  0  0  0  3  0  0  0  0  0  0
    0.2226    3.0545    2.2447 H   0  0  0  0  0  0  0  0  0  0  0  0
    2.1447    2.5218    0.5076 C   0  0  2  0  0  0  0  0  0  0  0  0
    3.0947    2.1369    0.9599 H   0  0  0  0  0  0  0  0  0  0  0  0
    2.0410    4.0131    0.8413 C   0  0  0  0  0  0  0  0  0  0  0  0
    1.0741    4.4000    0.4513 H   0  0  0  0  0  0  0  0  0  0  0  0
    2.0320    4.1640    1.9399 H   0  0  0  0  0  0  0  0  0  0  0  0
    3.2079    4.7916    0.2146 C   0  0  0  0  0  0  0  0  0  0  0  0
    4.1614    4.4741    0.6919 H   0  0  0  0  0  0  0  0  0  0  0  0
    3.0945    5.8705    0.4414 H   0  0  0  0  0  0  0  0  0  0  0  0
    3.2966    4.5709   -1.2998 C   0  0  0  0  0  0  0  0  0  0  0  0
    2.3916    4.9909   -1.7907 H   0  0  0  0  0  0  0  0  0  0  0  0
    4.1627    5.1176   -1.7229 H   0  0  0  0  0  0  0  0  0  0  0  0
    3.4050    3.0777   -1.6384 C   0  0  0  0  0  0  0  0  0  0  0  0
    3.4150    2.9194   -2.7371 H   0  0  0  0  0  0  0  0  0  0  0  0
    4.3672    2.6755   -1.2448 H   0  0  0  0  0  0  0  0  0  0  0  0
    2.2466    2.3044   -1.0102 C   0  0  1  0  0  0  0  0  0  0  0  0
    1.2806    2.6287   -1.4501 H   0  0  0  0  0  0  0  0  0  0  0  0
   -2.6504   -2.1799    1.7906 C   0  0  0  0  0  0  0  0  0  0  0  0
   -1.6855   -2.7254    1.7111 H   0  0  0  0  0  0  0  0  0  0  0  0
   -3.2818   -2.7180    2.5258 H   0  0  0  0  0  0  0  0  0  0  0  0
   -3.3287   -2.1705    0.4412 C   0  0  0  0  0  0  0  0  0  0  0  0
   -2.7871   -1.6409   -0.3605 H   0  0  0  0  0  0  0  0  0  0  0  0
   -4.5212   -2.7274    0.1730 C   0  0  0  0  0  0  0  0  0  0  0  0
   -5.1009   -3.2588    0.9466 H   0  0  0  0  0  0  0  0  0  0  0  0
   -4.9607   -2.6714   -0.8350 H   0  0  0  0  0  0  0  0  0  0  0  0
  1  6  1  0  0  0  0
  2 15  1  0  0  0  0
  3  4  1  0  0  0  0
  3 31  1  0  0  0  0
  5  3  1  0  0  0  0
  6 14  2  0  0  0  0
  6  7  1  0  0  0  0
  7  8  2  0  0  0  0
  8  9  1  0  0  0  0
  8 10  1  0  0  0  0
 10 11  1  0  0  0  0
 12 13  1  0  0  0  0
 12 10  2  0  0  0  0
 14 12  1  0  0  0  0
 15 16  1  0  0  0  0
 15 14  1  0  0  0  0
 17 19  1  0  0  0  0
 17 18  1  1  0  0  0
 17  2  1  0  0  0  0
 19 21  1  0  0  0  0
 20 19  1  0  0  0  0
 22 24  1  0  0  0  0
 22 23  1  0  0  0  0
 22 19  1  0  0  0  0
 25 22  1  0  0  0  0
 26 25  1  0  0  0  0
 27 25  1  0  0  0  0
 28 25  1  0  0  0  0
 28 30  1  0  0  0  0
 28 31  1  0  0  0  0
 29 28  1  0  0  0  0
 31 32  1  6  0  0  0
 31 17  1  0  0  0  0
 33  7  1  0  0  0  0
 33 35  1  0  0  0  0
 34 33  1  0  0  0  0
 36 33  1  0  0  0  0
 37 36  1  0  0  0  0
 38 36  2  0  0  0  0
 38 39  1  0  0  0  0
 40 38  1  0  0  0  0
M  CHG  1   1  -1
M  END
