1,3,4
 OpenBabel05122313063D

 31 34  0  0  0  0  0  0  0  0999 V2000
   -1.8371    0.5225   -1.0055 N   0  0  0  0  0  2  0  0  0  0  0  0
   -2.0353    1.3422   -2.0036 N   0  0  0  0  0  2  0  0  0  0  0  0
    0.2588    1.8882   -1.5966 N   0  0  0  0  0  2  0  0  0  0  0  0
   -1.1980   -1.1351    1.1214 O   0  5  0  0  0  0  0  0  0  0  0  0
   -2.3445   -1.1292    0.6245 C   0  0  0  0  0  0  0  0  0  0  0  0
    0.2153    3.7033   -3.7124 C   0  0  0  0  0  0  0  0  0  0  0  0
    0.1993    4.4195   -4.5483 H   0  0  0  0  0  0  0  0  0  0  0  0
   -5.0988   -0.0633   -1.7336 C   0  0  0  0  0  0  0  0  0  0  0  0
   -4.8112    0.7001   -2.4697 H   0  0  0  0  0  0  0  0  0  0  0  0
   -4.5883   -1.5342    0.1300 C   0  0  0  0  0  0  0  0  0  0  0  0
    1.3583    2.5903   -1.9099 C   0  0  0  0  0  3  0  0  0  0  0  0
    2.2474    2.4009   -1.2834 H   0  0  0  0  0  0  0  0  0  0  0  0
   -2.7686   -0.2760   -0.5089 C   0  0  0  0  0  0  0  0  0  0  0  0
   -3.5417   -1.9266    1.0109 C   0  0  0  0  0  0  0  0  0  0  0  0
   -3.7908   -2.8888    1.9824 C   0  0  0  0  0  0  0  0  0  0  0  0
   -2.9996   -3.2114    2.6756 H   0  0  0  0  0  0  0  0  0  0  0  0
    1.3938    3.5126   -2.9613 C   0  0  0  0  0  0  0  0  0  0  0  0
    2.3167    4.0654   -3.1847 H   0  0  0  0  0  0  0  0  0  0  0  0
   -0.8889    2.0591   -2.3129 C   0  0  0  0  0  0  0  0  0  0  0  0
   -0.9309    2.9793   -3.3917 C   0  0  0  0  0  0  0  0  0  0  0  0
   -1.8749    3.0876   -3.9433 H   0  0  0  0  0  0  0  0  0  0  0  0
   -4.1709   -0.5368   -0.8106 C   0  0  0  0  0  0  0  0  0  0  0  0
   -6.8273   -1.5648   -0.7816 C   0  0  0  0  0  0  0  0  0  0  0  0
   -7.8607   -1.9442   -0.7938 H   0  0  0  0  0  0  0  0  0  0  0  0
   -5.8954   -2.0719    0.1799 C   0  0  0  0  0  0  0  0  0  0  0  0
   -6.1240   -3.0585    1.1874 C   0  0  0  0  0  0  0  0  0  0  0  0
   -7.1211   -3.5176    1.2795 H   0  0  0  0  0  0  0  0  0  0  0  0
   -5.0990   -3.4472    2.0550 C   0  0  0  0  0  0  0  0  0  0  0  0
   -5.3091   -4.2107    2.8196 H   0  0  0  0  0  0  0  0  0  0  0  0
   -6.4245   -0.5944   -1.6986 C   0  0  0  0  0  0  0  0  0  0  0  0
   -7.1570   -0.2192   -2.4299 H   0  0  0  0  0  0  0  0  0  0  0  0
  1 13  1  0  0  0  0
  2  1  1  0  0  0  0
  5 14  1  0  0  0  0
  5  4  1  0  0  0  0
  6 20  1  0  0  0  0
  6 17  2  0  0  0  0
  7  6  1  0  0  0  0
  8 30  2  0  0  0  0
  8 22  1  0  0  0  0
  9  8  1  0  0  0  0
 10 25  1  0  0  0  0
 10 14  1  0  0  0  0
 11  3  1  0  0  0  0
 11 12  1  0  0  0  0
 13  5  2  0  0  0  0
 14 15  2  0  0  0  0
 15 28  1  0  0  0  0
 15 16  1  0  0  0  0
 17 11  1  0  0  0  0
 18 17  1  0  0  0  0
 19  2  1  0  0  0  0
 19  3  1  0  0  0  0
 20 19  2  0  0  0  0
 21 20  1  0  0  0  0
 22 13  1  0  0  0  0
 22 10  2  0  0  0  0
 23 25  2  0  0  0  0
 24 23  1  0  0  0  0
 25 26  1  0  0  0  0
 26 27  1  0  0  0  0
 26 28  2  0  0  0  0
 28 29  1  0  0  0  0
 30 23  1  0  0  0  0
 31 30  1  0  0  0  0
M  CHG  1   4  -1
M  END
