1,3,4
 OpenBabel05122313063D

 53 56  0  0  0  0  0  0  0  0999 V2000
    2.6518    1.5333   -0.7365 O   0  5  0  0  0  0  0  0  0  0  0  0
    4.6224   -3.5946    0.0841 O   0  0  0  0  0  0  0  0  0  0  0  0
   -1.0512    2.6943    0.2962 N   0  0  0  0  0  2  0  0  0  0  0  0
    0.4371    0.5625    1.0603 N   0  0  0  0  0  0  0  0  0  0  0  0
   -2.1018   -4.3818   -1.1504 N   0  0  0  0  0  0  0  0  0  0  0  0
   -1.8759    3.5273   -0.3796 C   0  0  0  0  0  3  0  0  0  0  0  0
   -3.2132    3.6891   -0.0057 C   0  0  0  0  0  0  0  0  0  0  0  0
   -3.7170    2.9632    1.0847 C   0  0  0  0  0  0  0  0  0  0  0  0
   -2.8544    2.1029    1.7813 C   0  0  0  0  0  0  0  0  0  0  0  0
   -1.5200    1.9977    1.3739 C   0  0  0  0  0  0  0  0  0  0  0  0
   -0.4765    1.1675    2.0673 C   0  0  0  0  0  0  0  0  0  0  0  0
    1.7324    0.1352    1.6751 C   0  0  0  0  0  0  0  0  0  0  0  0
    2.6669   -0.4644    0.6676 C   0  0  0  0  0  0  0  0  0  0  0  0
    3.0625    0.3046   -0.4710 C   0  0  0  0  0  0  0  0  0  0  0  0
    3.9928   -0.3027   -1.3687 C   0  0  0  0  0  0  0  0  0  0  0  0
    4.4942   -1.5815   -1.1541 C   0  0  0  0  0  0  0  0  0  0  0  0
    4.0845   -2.3386   -0.0324 C   0  0  0  0  0  0  0  0  0  0  0  0
    3.1714   -1.7698    0.8687 C   0  0  0  0  0  0  0  0  0  0  0  0
    4.2383   -4.3728    1.1922 C   0  0  0  0  0  0  0  0  0  0  0  0
   -0.2273   -0.5213    0.2763 C   0  0  0  0  0  0  0  0  0  0  0  0
   -0.5375   -1.8174    1.0480 C   0  0  0  0  0  0  0  0  0  0  0  0
   -1.4057   -2.7200    0.2253 C   0  0  0  0  0  0  0  0  0  0  0  0
   -1.0192   -3.8592   -0.4650 C   0  0  0  0  0  0  0  0  0  0  0  0
   -3.2141   -3.5929   -0.9307 C   0  0  0  0  0  0  0  0  0  0  0  0
   -4.5320   -3.7100   -1.4058 C   0  0  0  0  0  0  0  0  0  0  0  0
   -5.4533   -2.7352   -1.0068 C   0  0  0  0  0  0  0  0  0  0  0  0
   -5.0733   -1.6691   -0.1543 C   0  0  0  0  0  0  0  0  0  0  0  0
   -3.7631   -1.5561    0.3196 C   0  0  0  0  0  0  0  0  0  0  0  0
   -2.8081   -2.5247   -0.0641 C   0  0  0  0  0  0  0  0  0  0  0  0
   -1.3976    4.0555   -1.2218 H   0  0  0  0  0  0  0  0  0  0  0  0
   -3.8517    4.3773   -0.5776 H   0  0  0  0  0  0  0  0  0  0  0  0
   -4.7693    3.0624    1.3893 H   0  0  0  0  0  0  0  0  0  0  0  0
   -3.2066    1.5178    2.6433 H   0  0  0  0  0  0  0  0  0  0  0  0
   -0.9362    0.3998    2.7268 H   0  0  0  0  0  0  0  0  0  0  0  0
    0.1489    1.8289    2.7055 H   0  0  0  0  0  0  0  0  0  0  0  0
    2.1593    1.0561    2.1307 H   0  0  0  0  0  0  0  0  0  0  0  0
    1.5357   -0.5897    2.4959 H   0  0  0  0  0  0  0  0  0  0  0  0
    4.3023    0.2879   -2.2431 H   0  0  0  0  0  0  0  0  0  0  0  0
    5.2103   -2.0360   -1.8550 H   0  0  0  0  0  0  0  0  0  0  0  0
    2.8447   -2.3231    1.7617 H   0  0  0  0  0  0  0  0  0  0  0  0
    3.1398   -4.5712    1.2077 H   0  0  0  0  0  0  0  0  0  0  0  0
    4.7723   -5.3381    1.1063 H   0  0  0  0  0  0  0  0  0  0  0  0
    4.5161   -3.8946    2.1605 H   0  0  0  0  0  0  0  0  0  0  0  0
   -1.1599   -0.0933   -0.1409 H   0  0  0  0  0  0  0  0  0  0  0  0
    0.4356   -0.7543   -0.5786 H   0  0  0  0  0  0  0  0  0  0  0  0
    0.4084   -2.3337    1.3045 H   0  0  0  0  0  0  0  0  0  0  0  0
   -1.0518   -1.5859    2.0067 H   0  0  0  0  0  0  0  0  0  0  0  0
   -0.0335   -4.3367   -0.5195 H   0  0  0  0  0  0  0  0  0  0  0  0
   -2.0795   -5.2163   -1.7330 H   0  0  0  0  0  0  0  0  0  0  0  0
   -4.8300   -4.5355   -2.0697 H   0  0  0  0  0  0  0  0  0  0  0  0
   -6.4919   -2.7974   -1.3645 H   0  0  0  0  0  0  0  0  0  0  0  0
   -5.8241   -0.9183    0.1348 H   0  0  0  0  0  0  0  0  0  0  0  0
   -3.4794   -0.7190    0.9765 H   0  0  0  0  0  0  0  0  0  0  0  0
  1 14  1  0  0  0  0
  2 19  1  0  0  0  0
  3 10  1  0  0  0  0
  4 12  1  0  0  0  0
  4 11  1  0  0  0  0
  5 24  1  0  0  0  0
  5 23  1  0  0  0  0
  6  7  1  0  0  0  0
  6  3  1  0  0  0  0
  7  8  2  0  0  0  0
  8 32  1  0  0  0  0
  8  9  1  0  0  0  0
  9 33  1  0  0  0  0
 10  9  2  0  0  0  0
 10 11  1  0  0  0  0
 11 35  1  0  0  0  0
 11 34  1  0  0  0  0
 12 36  1  0  0  0  0
 12 37  1  0  0  0  0
 13 18  1  0  0  0  0
 13 12  1  0  0  0  0
 14 13  2  0  0  0  0
 15 16  2  0  0  0  0
 15 14  1  0  0  0  0
 16 17  1  0  0  0  0
 17  2  1  0  0  0  0
 17 18  2  0  0  0  0
 18 40  1  0  0  0  0
 19 41  1  0  0  0  0
 19 43  1  0  0  0  0
 20 21  1  0  0  0  0
 20  4  1  0  0  0  0
 21 46  1  0  0  0  0
 21 47  1  0  0  0  0
 22 21  1  0  0  0  0
 23 22  2  0  0  0  0
 24 29  1  0  0  0  0
 25 26  1  0  0  0  0
 25 24  2  0  0  0  0
 26 27  2  0  0  0  0
 27 52  1  0  0  0  0
 27 28  1  0  0  0  0
 28 53  1  0  0  0  0
 29 22  1  0  0  0  0
 29 28  2  0  0  0  0
 30  6  1  0  0  0  0
 31  7  1  0  0  0  0
 38 15  1  0  0  0  0
 39 16  1  0  0  0  0
 42 19  1  0  0  0  0
 44 20  1  0  0  0  0
 45 20  1  0  0  0  0
 48 23  1  0  0  0  0
 49  5  1  0  0  0  0
 50 25  1  0  0  0  0
 51 26  1  0  0  0  0
M  CHG  1   1  -1
M  END
