1,2,3
 OpenBabel05122313063D

 28 29  0  0  1  0  0  0  0  0999 V2000
   -2.1641    0.0661    0.0065 N   0  0  0  0  0  2  0  0  0  0  0  0
    0.0533   -1.2879    0.0396 N   0  0  0  0  0  2  0  0  0  0  0  0
    1.4540    0.8776    1.0037 O   0  5  0  0  0  0  0  0  0  0  0  0
    2.4690    0.3176    0.3709 C   0  0  0  0  0  0  0  0  0  0  0  0
    3.5747    1.0995   -0.0613 C   0  0  0  0  0  0  0  0  0  0  0  0
    3.5336    2.1842    0.1139 H   0  0  0  0  0  0  0  0  0  0  0  0
    4.6751    0.4818   -0.6642 C   0  0  0  0  0  0  0  0  0  0  0  0
    5.5369    1.0900   -0.9797 H   0  0  0  0  0  0  0  0  0  0  0  0
    4.6773   -0.9067   -0.8926 C   0  0  0  0  0  0  0  0  0  0  0  0
    5.5359   -1.3839   -1.3882 H   0  0  0  0  0  0  0  0  0  0  0  0
    3.5726   -1.6862   -0.4956 C   0  0  0  0  0  0  0  0  0  0  0  0
    3.5725   -2.7731   -0.6785 H   0  0  0  0  0  0  0  0  0  0  0  0
    2.4789   -1.0956    0.1416 C   0  0  0  0  0  0  0  0  0  0  0  0
    1.2663   -1.8382    0.6296 C   0  0  0  0  0  0  0  0  0  0  0  0
    1.3475   -2.9132    0.3368 H   0  0  0  0  0  0  0  0  0  0  0  0
    1.2169   -1.8272    1.7526 H   0  0  0  0  0  0  0  0  0  0  0  0
   -1.1183   -2.0437    0.4118 C   0  0  0  0  0  0  0  0  0  0  0  0
   -1.1746   -2.2587    1.5171 H   0  0  0  0  0  0  0  0  0  0  0  0
   -1.1111   -3.0524   -0.0700 H   0  0  0  0  0  0  0  0  0  0  0  0
   -2.3513   -1.2757    0.0345 C   0  0  1  0  0  3  0  0  0  0  0  0
   -3.6104   -1.8302   -0.2375 C   0  0  0  0  0  0  0  0  0  0  0  0
   -3.7422   -2.9217   -0.2221 H   0  0  0  0  0  0  0  0  0  0  0  0
   -4.6792   -0.9722   -0.5294 C   0  0  0  0  0  0  0  0  0  0  0  0
   -5.6762   -1.3842   -0.7468 H   0  0  0  0  0  0  0  0  0  0  0  0
   -4.4625    0.4148   -0.5492 C   0  0  0  0  0  0  0  0  0  0  0  0
   -5.2765    1.1185   -0.7736 H   0  0  0  0  0  0  0  0  0  0  0  0
   -3.1802    0.9034   -0.2805 C   0  0  0  0  0  0  0  0  0  0  0  0
   -2.9019    1.9723   -0.2919 H   0  0  0  0  0  0  0  0  0  0  0  0
  1 20  1  0  0  0  0
  2 17  1  0  0  0  0
  2 14  1  0  0  0  0
  4  3  1  0  0  0  0
  5  6  1  0  0  0  0
  5  4  2  0  0  0  0
  7  5  1  0  0  0  0
  8  7  1  0  0  0  0
  9  7  2  0  0  0  0
  9 11  1  0  0  0  0
 10  9  1  0  0  0  0
 11 13  2  0  0  0  0
 12 11  1  0  0  0  0
 13  4  1  0  0  0  0
 13 14  1  0  0  0  0
 14 16  1  0  0  0  0
 15 14  1  0  0  0  0
 17 18  1  0  0  0  0
 19 17  1  0  0  0  0
 20 17  1  1  0  0  0
 21 22  1  0  0  0  0
 21 20  1  0  0  0  0
 23 21  2  0  0  0  0
 24 23  1  0  0  0  0
 25 23  1  0  0  0  0
 25 27  2  0  0  0  0
 26 25  1  0  0  0  0
 27  1  1  0  0  0  0
 28 27  1  0  0  0  0
M  CHG  1   3  -1
M  END
