1,3,5
 OpenBabel05122313063D

 28 30  0  0  0  0  0  0  0  0999 V2000
   -2.1211   -0.1246   -1.0885 O   0  5  0  0  0  0  0  0  0  0  0  0
    2.4481   -0.9813    2.2475 O   0  0  0  0  0  0  0  0  0  0  0  0
   -0.8881   -0.7063    1.3339 N   0  0  0  0  0  2  0  0  0  0  0  0
    0.1228   -0.7539    2.2486 N   0  0  0  0  0  0  0  0  0  0  0  0
    1.3972   -1.0109    0.2433 N   0  0  0  0  0  2  0  0  0  0  0  0
   -3.2740   -0.2994   -0.4293 C   0  0  0  0  0  0  0  0  0  0  0  0
   -4.4833   -0.1793   -1.1447 C   0  0  0  0  0  0  0  0  0  0  0  0
   -5.7132   -0.3070   -0.4897 C   0  0  0  0  0  0  0  0  0  0  0  0
   -5.7629   -0.5504    0.8964 C   0  0  0  0  0  0  0  0  0  0  0  0
   -4.5718   -0.6658    1.6141 C   0  0  0  0  0  0  0  0  0  0  0  0
   -3.3069   -0.5537    0.9802 C   0  0  0  0  0  0  0  0  0  0  0  0
   -2.1161   -0.6644    1.7926 C   0  0  0  0  0  3  0  0  0  0  0  0
    1.2517   -0.9172    1.6002 C   0  0  0  0  0  0  0  0  0  0  0  0
    2.7647   -1.1274   -0.0034 C   0  0  0  0  0  0  0  0  0  0  0  0
    3.5124   -1.2457   -1.1814 C   0  0  0  0  0  0  0  0  0  0  0  0
    4.9107   -1.3368   -1.0439 C   0  0  0  0  0  0  0  0  0  0  0  0
    5.5359   -1.3153    0.2183 C   0  0  0  0  0  0  0  0  0  0  0  0
    4.7853   -1.2006    1.4074 C   0  0  0  0  0  0  0  0  0  0  0  0
    3.4074   -1.1068    1.2551 C   0  0  0  0  0  0  0  0  0  0  0  0
   -4.4227    0.0183   -2.2243 H   0  0  0  0  0  0  0  0  0  0  0  0
   -6.6455   -0.2131   -1.0672 H   0  0  0  0  0  0  0  0  0  0  0  0
   -6.7300   -0.6495    1.4101 H   0  0  0  0  0  0  0  0  0  0  0  0
   -4.5959   -0.8571    2.6984 H   0  0  0  0  0  0  0  0  0  0  0  0
   -2.2373   -0.7228    2.8910 H   0  0  0  0  0  0  0  0  0  0  0  0
    3.0105   -1.2690   -2.1587 H   0  0  0  0  0  0  0  0  0  0  0  0
    5.5304   -1.4331   -1.9478 H   0  0  0  0  0  0  0  0  0  0  0  0
    6.6311   -1.3934    0.2828 H   0  0  0  0  0  0  0  0  0  0  0  0
    5.2551   -1.1862    2.4003 H   0  0  0  0  0  0  0  0  0  0  0  0
  1  6  1  0  0  0  0
  3 12  1  0  0  0  0
  3  4  1  0  0  0  0
  5 13  1  0  0  0  0
  6 11  1  0  0  0  0
  7  8  1  0  0  0  0
  7  6  2  0  0  0  0
  8  9  2  0  0  0  0
  9 22  1  0  0  0  0
  9 10  1  0  0  0  0
 10 23  1  0  0  0  0
 11 10  2  0  0  0  0
 11 12  1  0  0  0  0
 12 24  1  0  0  0  0
 13  2  1  0  0  0  0
 13  4  2  0  0  0  0
 14  5  1  0  0  0  0
 14 19  1  0  0  0  0
 15 16  1  0  0  0  0
 15 14  2  0  0  0  0
 16 17  2  0  0  0  0
 17 27  1  0  0  0  0
 17 18  1  0  0  0  0
 18 28  1  0  0  0  0
 19 18  2  0  0  0  0
 19  2  1  0  0  0  0
 20  7  1  0  0  0  0
 21  8  1  0  0  0  0
 25 15  1  0  0  0  0
 26 16  1  0  0  0  0
M  CHG  1   1  -1
M  END
