29,32,33
 OpenBabel05122313063D

 35 37  0  0  1  0  0  0  0  0999 V2000
    3.4492   -0.7117   -0.8633 C   0  0  0  0  0  0  0  0  0  0  0  0
    3.1317   -1.7402   -1.1168 H   0  0  0  0  0  0  0  0  0  0  0  0
    4.8178   -0.3437   -0.8644 C   0  0  0  0  0  0  0  0  0  0  0  0
    5.5811   -1.0841   -1.1439 H   0  0  0  0  0  0  0  0  0  0  0  0
    5.1557    0.9485   -0.5028 C   0  0  0  0  0  0  0  0  0  0  0  0
    6.2052    1.2818   -0.4833 H   0  0  0  0  0  0  0  0  0  0  0  0
    4.1322    1.8731   -0.1505 C   0  0  0  0  0  0  0  0  0  0  0  0
    4.4351    3.2155    0.2126 C   0  0  0  0  0  0  0  0  0  0  0  0
    5.4883    3.5353    0.2341 H   0  0  0  0  0  0  0  0  0  0  0  0
    3.4136    4.1005    0.5235 C   0  0  0  0  0  0  0  0  0  0  0  0
    3.6398    5.1408    0.7997 H   0  0  0  0  0  0  0  0  0  0  0  0
    2.0734    3.6658    0.4814 C   0  0  0  0  0  0  0  0  0  0  0  0
    1.2739    4.3839    0.7232 H   0  0  0  0  0  0  0  0  0  0  0  0
    1.7062    2.3474    0.1484 C   0  0  0  0  0  0  0  0  0  0  0  0
    2.7625    1.4097   -0.1826 C   0  0  1  0  0  3  0  0  0  0  0  0
    0.2731    2.0991    0.1517 C   0  0  0  0  0  3  0  0  0  0  0  0
   -0.3322    3.0216    0.3032 H   0  0  0  0  0  0  0  0  0  0  0  0
   -2.5284   -0.0410   -0.1632 C   0  0  2  0  0  3  0  0  0  0  0  0
   -4.0106    0.1896   -0.1455 C   0  0  0  0  0  0  0  0  0  0  0  0
   -4.6757    1.4334    0.0214 C   0  0  0  0  0  0  0  0  0  0  0  0
   -6.0806    1.4935    0.0123 C   0  0  0  0  0  0  0  0  0  0  0  0
   -6.5765    2.4697    0.1435 H   0  0  0  0  0  0  0  0  0  0  0  0
   -6.8411    0.3314   -0.1599 C   0  0  0  0  0  0  0  0  0  0  0  0
   -7.9393    0.3990   -0.1634 H   0  0  0  0  0  0  0  0  0  0  0  0
   -6.2012   -0.9080   -0.3258 C   0  0  0  0  0  0  0  0  0  0  0  0
   -6.7909   -1.8259   -0.4607 H   0  0  0  0  0  0  0  0  0  0  0  0
   -4.8058   -0.9655   -0.3176 C   0  0  0  0  0  0  0  0  0  0  0  0
   -4.2674   -1.9160   -0.4448 H   0  0  0  0  0  0  0  0  0  0  0  0
   -2.0548   -1.1672   -0.3379 O   0  0  0  0  0  1  0  0  0  0  0  0
   -3.9362    2.5766    0.1920 O   0  0  0  0  0  0  0  0  0  0  0  0
   -4.5382    3.3375    0.2924 H   0  0  0  0  0  0  0  0  0  0  0  0
    2.4667    0.1276   -0.5346 N   0  0  0  0  0  2  0  0  0  0  0  0
   -0.3755    0.9721    0.0128 N   0  0  0  0  0  2  0  0  0  0  0  0
   -1.7246    1.0702    0.0311 N   0  0  0  0  0  0  0  0  0  0  0  0
   -2.1744    1.9905    0.1609 H   0  0  0  0  0  0  0  0  0  0  0  0
  1 32  1  0  0  0  0
  2  1  1  0  0  0  0
  3  1  2  0  0  0  0
  3  5  1  0  0  0  0
  4  3  1  0  0  0  0
  5  6  1  0  0  0  0
  5  7  2  0  0  0  0
  7  8  1  0  0  0  0
  8  9  1  0  0  0  0
  8 10  2  0  0  0  0
 10 11  1  0  0  0  0
 12 10  1  0  0  0  0
 12 13  1  0  0  0  0
 14 16  1  0  0  0  0
 14 12  2  0  0  0  0
 15 32  1  6  0  0  0
 15  7  1  0  0  0  0
 15 14  1  0  0  0  0
 16 17  1  0  0  0  0
 18 29  1  1  0  0  0
 18 19  1  0  0  0  0
 18 34  1  0  0  0  0
 19 20  1  0  0  0  0
 20 30  1  0  0  0  0
 21 20  2  0  0  0  0
 21 22  1  0  0  0  0
 23 21  1  0  0  0  0
 24 23  1  0  0  0  0
 25 27  1  0  0  0  0
 25 23  2  0  0  0  0
 26 25  1  0  0  0  0
 27 19  2  0  0  0  0
 28 27  1  0  0  0  0
 30 31  1  0  0  0  0
 33 34  1  0  0  0  0
 33 16  1  0  0  0  0
 34 35  1  0  0  0  0
M  END
