2,3,5
 OpenBabel05122313063D

 47 47  0  0  0  0  0  0  0  0999 V2000
    0.2781    3.4649   -0.6396 S   0  0  0  0  0  0  0  0  0  0  0  0
   -3.3448   -1.3655    0.6776 O   0  5  0  0  0  0  0  0  0  0  0  0
   -2.5153    0.8427   -0.7534 N   0  0  0  0  0  2  0  0  0  0  0  0
   -1.8236    1.9767   -1.0534 N   0  0  0  0  0  0  0  0  0  0  0  0
   -0.3490    1.0287    0.4919 N   0  0  0  0  0  2  0  0  0  0  0  0
    0.4713    1.1702    1.0843 H   0  0  0  0  0  0  0  0  0  0  0  0
   -4.3660   -1.4339   -0.1797 C   0  0  0  0  0  0  0  0  0  0  0  0
   -5.3021   -2.4799   -0.0385 C   0  0  0  0  0  0  0  0  0  0  0  0
   -5.1327   -3.2174    0.7590 H   0  0  0  0  0  0  0  0  0  0  0  0
   -6.4071   -2.5628   -0.8925 C   0  0  0  0  0  0  0  0  0  0  0  0
   -7.1258   -3.3870   -0.7675 H   0  0  0  0  0  0  0  0  0  0  0  0
   -6.6045   -1.6026   -1.9047 C   0  0  0  0  0  0  0  0  0  0  0  0
   -7.4739   -1.6709   -2.5742 H   0  0  0  0  0  0  0  0  0  0  0  0
   -5.6851   -0.5639   -2.0512 C   0  0  0  0  0  0  0  0  0  0  0  0
   -5.8252    0.1936   -2.8382 H   0  0  0  0  0  0  0  0  0  0  0  0
   -4.5492   -0.4540   -1.2066 C   0  0  0  0  0  0  0  0  0  0  0  0
   -3.6464    0.6534   -1.3969 C   0  0  0  0  0  3  0  0  0  0  0  0
   -3.9102    1.4196   -2.1501 H   0  0  0  0  0  0  0  0  0  0  0  0
   -0.6937    2.0128   -0.3642 C   0  0  0  0  0  0  0  0  0  0  0  0
    1.8633    3.0264    0.1633 C   0  0  0  0  0  0  0  0  0  0  0  0
    2.4035    3.9953    0.2018 H   0  0  0  0  0  0  0  0  0  0  0  0
    1.6762    2.7492    1.2244 H   0  0  0  0  0  0  0  0  0  0  0  0
    2.6840    1.9683   -0.5756 C   0  0  0  0  0  0  0  0  0  0  0  0
    2.0850    1.0378   -0.6767 H   0  0  0  0  0  0  0  0  0  0  0  0
    2.8724    2.3225   -1.6114 H   0  0  0  0  0  0  0  0  0  0  0  0
    4.0089    1.6524    0.1257 C   0  0  0  0  0  0  0  0  0  0  0  0
    3.8049    1.3081    1.1652 H   0  0  0  0  0  0  0  0  0  0  0  0
    4.6078    2.5854    0.2311 H   0  0  0  0  0  0  0  0  0  0  0  0
    4.8398    0.5922   -0.6022 C   0  0  0  0  0  0  0  0  0  0  0  0
    4.2352   -0.3363   -0.7091 H   0  0  0  0  0  0  0  0  0  0  0  0
    5.0444    0.9362   -1.6411 H   0  0  0  0  0  0  0  0  0  0  0  0
    6.1625    0.2607    0.0931 C   0  0  0  0  0  0  0  0  0  0  0  0
    5.9557   -0.0834    1.1319 H   0  0  0  0  0  0  0  0  0  0  0  0
    6.7653    1.1909    0.2021 H   0  0  0  0  0  0  0  0  0  0  0  0
    6.9940   -0.7990   -0.6343 C   0  0  0  0  0  0  0  0  0  0  0  0
    6.3903   -1.7284   -0.7430 H   0  0  0  0  0  0  0  0  0  0  0  0
    7.1996   -0.4552   -1.6735 H   0  0  0  0  0  0  0  0  0  0  0  0
    8.3170   -1.1328    0.0594 C   0  0  0  0  0  0  0  0  0  0  0  0
    8.1111   -1.4770    1.0986 H   0  0  0  0  0  0  0  0  0  0  0  0
    8.9204   -0.2027    0.1692 H   0  0  0  0  0  0  0  0  0  0  0  0
    9.1502   -2.1925   -0.6678 C   0  0  0  0  0  0  0  0  0  0  0  0
    9.3526   -1.8464   -1.7060 H   0  0  0  0  0  0  0  0  0  0  0  0
    8.5441   -3.1196   -0.7767 H   0  0  0  0  0  0  0  0  0  0  0  0
   10.4694   -2.5188    0.0329 C   0  0  0  0  0  0  0  0  0  0  0  0
   11.0490   -3.2878   -0.5165 H   0  0  0  0  0  0  0  0  0  0  0  0
   10.2960   -2.9021    1.0604 H   0  0  0  0  0  0  0  0  0  0  0  0
   11.1116   -1.6176    0.1235 H   0  0  0  0  0  0  0  0  0  0  0  0
  1 19  1  0  0  0  0
  1 20  1  0  0  0  0
  4  3  1  0  0  0  0
  4 19  2  0  0  0  0
  5  6  1  0  0  0  0
  7  8  1  0  0  0  0
  7  2  1  0  0  0  0
  8  9  1  0  0  0  0
 10 11  1  0  0  0  0
 10  8  2  0  0  0  0
 12 10  1  0  0  0  0
 13 12  1  0  0  0  0
 14 12  2  0  0  0  0
 14 16  1  0  0  0  0
 15 14  1  0  0  0  0
 16  7  2  0  0  0  0
 17 16  1  0  0  0  0
 17  3  1  0  0  0  0
 18 17  1  0  0  0  0
 19  5  1  0  0  0  0
 20 21  1  0  0  0  0
 20 22  1  0  0  0  0
 23 26  1  0  0  0  0
 23 20  1  0  0  0  0
 24 23  1  0  0  0  0
 25 23  1  0  0  0  0
 26 28  1  0  0  0  0
 26 27  1  0  0  0  0
 29 32  1  0  0  0  0
 29 26  1  0  0  0  0
 30 29  1  0  0  0  0
 31 29  1  0  0  0  0
 32 34  1  0  0  0  0
 32 33  1  0  0  0  0
 35 38  1  0  0  0  0
 35 32  1  0  0  0  0
 36 35  1  0  0  0  0
 37 35  1  0  0  0  0
 38 40  1  0  0  0  0
 38 39  1  0  0  0  0
 41 44  1  0  0  0  0
 41 38  1  0  0  0  0
 42 41  1  0  0  0  0
 43 41  1  0  0  0  0
 44 47  1  0  0  0  0
 44 46  1  0  0  0  0
 45 44  1  0  0  0  0
M  CHG  1   2  -1
M  END
