1,2,3
 OpenBabel05122313063D

 39 41  0  0  0  0  0  0  0  0999 V2000
    1.2454   -0.7882    1.7958 O   0  5  0  0  0  0  0  0  0  0  0  0
    1.9848    0.4541   -0.3301 N   0  0  0  0  0  2  0  0  0  0  0  0
   -0.2133    1.0980   -1.6550 N   0  0  0  0  0  2  0  0  0  0  0  0
    2.9675    0.0649    0.4667 N   0  0  0  0  0  0  0  0  0  0  0  0
    5.4566   -0.3204    1.2948 N   0  0  0  0  0  0  0  0  0  0  0  0
    3.4889   -1.1129    2.5327 C   0  0  0  0  0  0  0  0  0  0  0  0
    3.0012   -1.7999    3.6719 C   0  0  0  0  0  0  0  0  0  0  0  0
    1.9093   -1.9016    3.7519 H   0  0  0  0  0  0  0  0  0  0  0  0
    0.9769    1.4449   -2.2169 C   0  0  0  0  0  0  0  0  0  0  0  0
    2.4826   -0.6025    1.5807 C   0  0  0  0  0  0  0  0  0  0  0  0
    5.7593   -1.4759    3.3928 C   0  0  0  0  0  0  0  0  0  0  0  0
    6.8483   -1.3478    3.2845 H   0  0  0  0  0  0  0  0  0  0  0  0
    3.5479    1.5219   -1.9119 C   0  0  0  0  0  0  0  0  0  0  0  0
    2.1937    1.1232   -1.4489 C   0  0  0  0  0  0  0  0  0  0  0  0
    4.9136   -0.9450    2.3749 C   0  0  0  0  0  0  0  0  0  0  0  0
    1.0110    2.0549   -3.4942 C   0  0  0  0  0  0  0  0  0  0  0  0
    1.9768    2.2993   -3.9564 H   0  0  0  0  0  0  0  0  0  0  0  0
   -1.4086    1.9876   -3.5453 C   0  0  0  0  0  0  0  0  0  0  0  0
   -2.3749    2.1937   -4.0265 H   0  0  0  0  0  0  0  0  0  0  0  0
    4.5699    0.5569   -2.0596 C   0  0  0  0  0  0  0  0  0  0  0  0
    4.3511   -0.4981   -1.8423 H   0  0  0  0  0  0  0  0  0  0  0  0
    3.8483   -2.3166    4.6487 C   0  0  0  0  0  0  0  0  0  0  0  0
    3.4401   -2.8435    5.5232 H   0  0  0  0  0  0  0  0  0  0  0  0
   -0.1907    2.3274   -4.1554 C   0  0  0  0  0  0  0  0  0  0  0  0
   -0.1758    2.8027   -5.1481 H   0  0  0  0  0  0  0  0  0  0  0  0
    5.2416   -2.1441    4.4980 C   0  0  0  0  0  0  0  0  0  0  0  0
    5.9325   -2.5387    5.2597 H   0  0  0  0  0  0  0  0  0  0  0  0
   -1.3607    1.3616   -2.2907 C   0  0  0  0  0  0  0  0  0  0  0  0
   -2.2845    1.0611   -1.7665 H   0  0  0  0  0  0  0  0  0  0  0  0
    5.8548    0.9365   -2.4699 C   0  0  0  0  0  0  0  0  0  0  0  0
    6.6380    0.1712   -2.5836 H   0  0  0  0  0  0  0  0  0  0  0  0
    3.8516    2.8754   -2.1784 C   0  0  0  0  0  0  0  0  0  0  0  0
    3.0715    3.6402   -2.0433 H   0  0  0  0  0  0  0  0  0  0  0  0
    6.1444    2.2852   -2.7357 C   0  0  0  0  0  0  0  0  0  0  0  0
    7.1548    2.5817   -3.0556 H   0  0  0  0  0  0  0  0  0  0  0  0
    5.1391    3.2534   -2.5871 C   0  0  0  0  0  0  0  0  0  0  0  0
    5.3601    4.3137   -2.7832 H   0  0  0  0  0  0  0  0  0  0  0  0
    6.4487   -0.0951    1.2977 H   0  0  0  0  0  0  0  0  0  0  0  0
    4.7854    0.1329    0.6475 H   0  0  0  0  0  0  0  0  0  0  0  0
  2  4  1  0  0  0  0
  4 10  2  0  0  0  0
  5 38  1  0  0  0  0
  5 15  1  0  0  0  0
  6  7  1  0  0  0  0
  7  8  1  0  0  0  0
  7 22  2  0  0  0  0
  9  3  1  0  0  0  0
  9 14  2  0  0  0  0
 10  1  1  0  0  0  0
 10  6  1  0  0  0  0
 11 26  2  0  0  0  0
 12 11  1  0  0  0  0
 13 14  1  0  0  0  0
 14  2  1  0  0  0  0
 15  6  2  0  0  0  0
 15 11  1  0  0  0  0
 16  9  1  0  0  0  0
 17 16  1  0  0  0  0
 18 28  2  0  0  0  0
 19 18  1  0  0  0  0
 20 13  1  0  0  0  0
 20 21  1  0  0  0  0
 22 23  1  0  0  0  0
 24 18  1  0  0  0  0
 24 16  2  0  0  0  0
 25 24  1  0  0  0  0
 26 22  1  0  0  0  0
 26 27  1  0  0  0  0
 28 29  1  0  0  0  0
 28  3  1  0  0  0  0
 30 20  2  0  0  0  0
 31 30  1  0  0  0  0
 32 33  1  0  0  0  0
 32 13  2  0  0  0  0
 34 36  2  0  0  0  0
 34 30  1  0  0  0  0
 35 34  1  0  0  0  0
 36 32  1  0  0  0  0
 37 36  1  0  0  0  0
 39  5  1  0  0  0  0
M  CHG  1   1  -1
M  END
