1,3,18
 OpenBabel05122313063D

 26 26  0  0  1  0  0  0  0  0999 V2000
    0.2109   -0.0001   -1.8898 O   0  0  0  0  0  1  0  0  0  0  0  0
   -3.3842    2.3649    0.3723 O   0  0  0  0  0  0  0  0  0  0  0  0
   -0.6220    1.3953    0.2845 N   0  0  0  0  0  0  0  0  0  0  0  0
   -2.8348    0.0000    1.6464 N   0  0  0  0  0  0  0  0  0  0  0  0
   -1.1409   -0.0001   -1.6732 C   0  0  2  0  0  0  0  0  0  0  0  0
   -1.5524    1.2744   -0.8755 C   0  0  1  0  0  0  0  0  0  0  0  0
   -3.0338    1.2662   -0.4641 C   0  0  1  0  0  0  0  0  0  0  0  0
   -3.4461    0.0000    0.3062 C   0  0  1  0  0  0  0  0  0  0  0  0
   -1.7177   -0.0001   -2.6345 H   0  0  0  0  0  0  0  0  0  0  0  0
   -1.3637    2.1342   -1.5518 H   0  0  0  0  0  0  0  0  0  0  0  0
   -3.6313    1.2742   -1.4080 H   0  0  0  0  0  0  0  0  0  0  0  0
   -4.5611    0.0001    0.3629 H   0  0  0  0  0  0  0  0  0  0  0  0
   -0.3440    2.3692    0.4427 H   0  0  0  0  0  0  0  0  0  0  0  0
   -1.1212    1.0810    1.1363 H   0  0  0  0  0  0  0  0  0  0  0  0
   -3.2027    3.1868   -0.1185 H   0  0  0  0  0  0  0  0  0  0  0  0
   -3.1728    0.8282    2.1539 H   0  0  0  0  0  0  0  0  0  0  0  0
   -3.3843   -2.3648    0.3724 O   0  0  0  0  0  0  0  0  0  0  0  0
   -0.6220   -1.3952    0.2845 N   0  0  0  0  0  0  0  0  0  0  0  0
   -1.5525   -1.2744   -0.8754 C   0  0  1  0  0  0  0  0  0  0  0  0
   -3.0339   -1.2662   -0.4641 C   0  0  2  0  0  0  0  0  0  0  0  0
   -1.3638   -2.1343   -1.5517 H   0  0  0  0  0  0  0  0  0  0  0  0
   -3.6314   -1.2741   -1.4080 H   0  0  0  0  0  0  0  0  0  0  0  0
   -0.3442   -2.3692    0.4429 H   0  0  0  0  0  0  0  0  0  0  0  0
   -1.1212   -1.0807    1.1363 H   0  0  0  0  0  0  0  0  0  0  0  0
   -3.2028   -3.1868   -0.1184 H   0  0  0  0  0  0  0  0  0  0  0  0
   -3.1730   -0.8281    2.1540 H   0  0  0  0  0  0  0  0  0  0  0  0
  1  5  1  0  0  0  0
  3 13  1  0  0  0  0
  3 14  1  0  0  0  0
  4 16  1  0  0  0  0
  4 26  1  0  0  0  0
  5  9  1  6  0  0  0
  5  6  1  0  0  0  0
  5 19  1  0  0  0  0
  6 10  1  6  0  0  0
  6  7  1  0  0  0  0
  6  3  1  0  0  0  0
  7 11  1  6  0  0  0
  7  8  1  0  0  0  0
  7  2  1  0  0  0  0
  8 12  1  1  0  0  0
  8  4  1  0  0  0  0
 15  2  1  0  0  0  0
 18 23  1  0  0  0  0
 18 24  1  0  0  0  0
 19 21  1  6  0  0  0
 19 20  1  0  0  0  0
 19 18  1  0  0  0  0
 20 22  1  6  0  0  0
 20  8  1  0  0  0  0
 20 17  1  0  0  0  0
 25 17  1  0  0  0  0
M  END
