1,3,4
 OpenBabel05122313063D

 27 27  0  0  1  0  0  0  0  0999 V2000
    0.2136   -0.1324    1.9135 O   0  5  0  0  0  0  0  0  0  0  0  0
    1.5633    1.2674    3.0689 O   0  0  0  0  0  0  0  0  0  0  0  0
   -0.0121    1.6931   -0.1829 N   0  0  0  0  0  0  0  0  0  0  0  0
    1.4419   -0.6872   -0.4511 N   0  0  0  0  0  2  0  0  0  0  0  0
    0.3751    2.1524    1.1827 C   0  0  0  0  0  0  0  0  0  0  0  0
    0.7997    1.0136    2.1481 C   0  0  0  0  0  0  0  0  0  0  0  0
    1.1683    1.6363   -1.0854 C   0  0  0  0  0  0  0  0  0  0  0  0
    2.0709    0.4706   -0.7790 C   0  0  2  0  0  3  0  0  0  0  0  0
    3.4673    0.5462   -0.8658 C   0  0  0  0  0  0  0  0  0  0  0  0
    4.2308   -0.6033   -0.6238 C   0  0  0  0  0  0  0  0  0  0  0  0
    3.5717   -1.7949   -0.2919 C   0  0  0  0  0  0  0  0  0  0  0  0
    2.1766   -1.7943   -0.2073 C   0  0  0  0  0  0  0  0  0  0  0  0
   -1.0847    2.5524   -0.7802 C   0  0  0  0  0  0  0  0  0  0  0  0
   -0.7152    4.0169   -1.0039 C   0  0  0  0  0  0  0  0  0  0  0  0
   -0.5175    2.6206    1.6455 H   0  0  0  0  0  0  0  0  0  0  0  0
    1.1764    2.9178    1.1443 H   0  0  0  0  0  0  0  0  0  0  0  0
    0.7826    1.5099   -2.1207 H   0  0  0  0  0  0  0  0  0  0  0  0
    1.7475    2.5837   -1.0547 H   0  0  0  0  0  0  0  0  0  0  0  0
    3.9453    1.5044   -1.1148 H   0  0  0  0  0  0  0  0  0  0  0  0
    5.3285   -0.5655   -0.6820 H   0  0  0  0  0  0  0  0  0  0  0  0
    4.1276   -2.7195   -0.0834 H   0  0  0  0  0  0  0  0  0  0  0  0
    1.6153   -2.6971    0.0727 H   0  0  0  0  0  0  0  0  0  0  0  0
   -1.3844    2.0730   -1.7338 H   0  0  0  0  0  0  0  0  0  0  0  0
   -1.9568    2.4729   -0.1031 H   0  0  0  0  0  0  0  0  0  0  0  0
   -0.4253    4.5254   -0.0631 H   0  0  0  0  0  0  0  0  0  0  0  0
   -1.5954    4.5522   -1.4111 H   0  0  0  0  0  0  0  0  0  0  0  0
    0.1081    4.1430   -1.7353 H   0  0  0  0  0  0  0  0  0  0  0  0
  1  6  1  0  0  0  0
  3  5  1  0  0  0  0
  4 12  1  0  0  0  0
  5 15  1  0  0  0  0
  5  6  1  0  0  0  0
  6  2  2  0  0  0  0
  7 18  1  0  0  0  0
  7  3  1  0  0  0  0
  8  7  1  6  0  0  0
  8  4  1  0  0  0  0
  9  8  1  0  0  0  0
  9 10  2  0  0  0  0
 10 11  1  0  0  0  0
 11 12  2  0  0  0  0
 11 21  1  0  0  0  0
 12 22  1  0  0  0  0
 13  3  1  0  0  0  0
 13 24  1  0  0  0  0
 14 13  1  0  0  0  0
 14 25  1  0  0  0  0
 16  5  1  0  0  0  0
 17  7  1  0  0  0  0
 19  9  1  0  0  0  0
 20 10  1  0  0  0  0
 23 13  1  0  0  0  0
 26 14  1  0  0  0  0
 27 14  1  0  0  0  0
M  CHG  1   1  -1
M  END
