1,2,3
 OpenBabel05122313063D

 42 44  0  0  1  0  0  0  0  0999 V2000
   -1.4728   -0.2919    0.1541 O   0  5  0  0  0  0  0  0  0  0  0  0
    2.4369   -0.8509   -0.1479 N   0  0  0  0  0  2  0  0  0  0  0  0
    0.7690    1.2358    0.0572 N   0  0  0  0  0  2  0  0  0  0  0  0
    3.2011   -1.9299   -0.3038 C   0  0  0  0  0  0  0  0  0  0  0  0
    2.6681   -2.8891   -0.3934 H   0  0  0  0  0  0  0  0  0  0  0  0
    4.6149   -1.8534   -0.3425 C   0  0  0  0  0  0  0  0  0  0  0  0
    5.1985   -2.7748   -0.4766 H   0  0  0  0  0  0  0  0  0  0  0  0
    5.2302   -0.6209   -0.1978 C   0  0  0  0  0  0  0  0  0  0  0  0
    6.3271   -0.5282   -0.2092 H   0  0  0  0  0  0  0  0  0  0  0  0
    4.4355    0.5481   -0.0258 C   0  0  0  0  0  0  0  0  0  0  0  0
    3.0111    0.3817   -0.0220 C   0  0  2  0  0  3  0  0  0  0  0  0
    4.9784    1.8511    0.1535 C   0  0  0  0  0  0  0  0  0  0  0  0
    6.0707    1.9812    0.1574 H   0  0  0  0  0  0  0  0  0  0  0  0
    4.1289    2.9336    0.3394 C   0  0  0  0  0  0  0  0  0  0  0  0
    4.5472    3.9381    0.5018 H   0  0  0  0  0  0  0  0  0  0  0  0
    2.7231    2.7712    0.3307 C   0  0  0  0  0  0  0  0  0  0  0  0
    2.0889    3.6521    0.5013 H   0  0  0  0  0  0  0  0  0  0  0  0
    2.1437    1.5149    0.1250 C   0  0  0  0  0  0  0  0  0  0  0  0
   -0.1119    2.1954   -0.0768 C   0  0  0  0  0  3  0  0  0  0  0  0
    0.2485    3.2392   -0.1764 H   0  0  0  0  0  0  0  0  0  0  0  0
   -1.5431    2.0600   -0.1264 C   0  0  0  0  0  0  0  0  0  0  0  0
   -2.3229    3.2345   -0.2926 C   0  0  0  0  0  0  0  0  0  0  0  0
   -1.8113    4.2040   -0.3984 H   0  0  0  0  0  0  0  0  0  0  0  0
   -3.7089    3.1543   -0.3192 C   0  0  0  0  0  0  0  0  0  0  0  0
   -4.3180    4.0603   -0.4494 H   0  0  0  0  0  0  0  0  0  0  0  0
   -4.3403    1.8996   -0.1758 C   0  0  0  0  0  0  0  0  0  0  0  0
   -5.4377    1.8673   -0.2002 H   0  0  0  0  0  0  0  0  0  0  0  0
   -3.6309    0.6997   -0.0071 C   0  0  0  0  0  0  0  0  0  0  0  0
   -2.2046    0.7934    0.0105 C   0  0  0  0  0  0  0  0  0  0  0  0
   -4.3284   -0.6633    0.1446 C   0  0  0  0  0  0  0  0  0  0  0  0
   -3.9094   -1.5969   -1.0179 C   0  0  0  0  0  0  0  0  0  0  0  0
   -4.1801   -1.1512   -1.9965 H   0  0  0  0  0  0  0  0  0  0  0  0
   -4.4401   -2.5666   -0.9251 H   0  0  0  0  0  0  0  0  0  0  0  0
   -2.8241   -1.8042   -1.0204 H   0  0  0  0  0  0  0  0  0  0  0  0
   -3.9451   -1.2968    1.5045 C   0  0  0  0  0  0  0  0  0  0  0  0
   -2.8570   -1.4687    1.5924 H   0  0  0  0  0  0  0  0  0  0  0  0
   -4.4559   -2.2751    1.6169 H   0  0  0  0  0  0  0  0  0  0  0  0
   -4.2645   -0.6466    2.3443 H   0  0  0  0  0  0  0  0  0  0  0  0
   -5.8606   -0.5176    0.1054 C   0  0  0  0  0  0  0  0  0  0  0  0
   -6.2409    0.1237    0.9266 H   0  0  0  0  0  0  0  0  0  0  0  0
   -6.3248   -1.5167    0.2237 H   0  0  0  0  0  0  0  0  0  0  0  0
   -6.2163   -0.1000   -0.8586 H   0  0  0  0  0  0  0  0  0  0  0  0
  3 18  1  0  0  0  0
  4  2  1  0  0  0  0
  5  4  1  0  0  0  0
  6  4  2  0  0  0  0
  6  8  1  0  0  0  0
  7  6  1  0  0  0  0
  8 10  2  0  0  0  0
  9  8  1  0  0  0  0
 10 11  1  0  0  0  0
 10 12  1  0  0  0  0
 11  2  1  1  0  0  0
 11 18  1  0  0  0  0
 12 13  1  0  0  0  0
 12 14  2  0  0  0  0
 14 15  1  0  0  0  0
 16 14  1  0  0  0  0
 16 17  1  0  0  0  0
 18 16  2  0  0  0  0
 19  3  1  0  0  0  0
 20 19  1  0  0  0  0
 21 19  1  0  0  0  0
 21 29  1  0  0  0  0
 22 21  2  0  0  0  0
 23 22  1  0  0  0  0
 24 22  1  0  0  0  0
 24 26  2  0  0  0  0
 25 24  1  0  0  0  0
 26 28  1  0  0  0  0
 27 26  1  0  0  0  0
 28 29  2  0  0  0  0
 28 30  1  0  0  0  0
 29  1  1  0  0  0  0
 30 35  1  0  0  0  0
 31 33  1  0  0  0  0
 31 30  1  0  0  0  0
 32 31  1  0  0  0  0
 34 31  1  0  0  0  0
 35 36  1  0  0  0  0
 35 37  1  0  0  0  0
 35 38  1  0  0  0  0
 39 30  1  0  0  0  0
 39 41  1  0  0  0  0
 39 40  1  0  0  0  0
 42 39  1  0  0  0  0
M  CHG  1   1  -1
M  END
