1,3,7
 OpenBabel05122313063D

 26 27  0  0  1  0  0  0  0  0999 V2000
    1.3012   -1.2233    1.4212 O   0  5  0  0  0  0  0  0  0  0  0  0
    3.4800   -0.8176    1.8660 O   0  0  0  0  0  0  0  0  0  0  0  0
   -1.7957    0.2266    0.2442 N   0  0  0  0  0  0  0  0  0  0  0  0
   -3.0379   -0.3080    0.2160 N   0  0  0  0  0  0  0  0  0  0  0  0
   -3.9158    0.6640    0.2168 N   0  0  0  0  0  0  0  0  0  0  0  0
   -3.2836    1.8501    0.2495 N   0  0  0  0  0  0  0  0  0  0  0  0
    1.0962    1.0298   -0.2237 N   0  0  0  0  0  0  0  0  0  0  0  0
   -1.9726    1.5683    0.2611 C   0  0  0  0  0  3  0  0  0  0  0  0
   -0.8691    2.5835    0.2270 C   0  0  0  0  0  0  0  0  0  0  0  0
   -1.1522    3.4156    0.9028 H   0  0  0  0  0  0  0  0  0  0  0  0
   -0.8378    3.0386   -0.7871 H   0  0  0  0  0  0  0  0  0  0  0  0
    0.5281    2.0990    0.6288 C   0  0  0  0  0  0  0  0  0  0  0  0
    1.2219    2.9725    0.6230 H   0  0  0  0  0  0  0  0  0  0  0  0
    0.5121    1.7087    1.6683 H   0  0  0  0  0  0  0  0  0  0  0  0
    1.1976    1.3405   -1.6682 C   0  0  0  0  0  0  0  0  0  0  0  0
    1.6395    2.3551   -1.8176 H   0  0  0  0  0  0  0  0  0  0  0  0
    0.1967    1.3256   -2.1444 H   0  0  0  0  0  0  0  0  0  0  0  0
    2.1396    0.2500   -2.1712 C   0  0  0  0  0  0  0  0  0  0  0  0
    1.5848   -0.7100   -2.2455 H   0  0  0  0  0  0  0  0  0  0  0  0
    2.5539    0.4730   -3.1729 H   0  0  0  0  0  0  0  0  0  0  0  0
    3.2083    0.1949   -1.0656 C   0  0  0  0  0  0  0  0  0  0  0  0
    4.0117    0.9291   -1.2722 H   0  0  0  0  0  0  0  0  0  0  0  0
    3.6962   -0.7933   -0.9695 H   0  0  0  0  0  0  0  0  0  0  0  0
    2.4571    0.5901    0.2377 C   0  0  2  0  0  0  0  0  0  0  0  0
    2.9742    1.4378    0.7354 H   0  0  0  0  0  0  0  0  0  0  0  0
    2.4337   -0.5726    1.2831 C   0  0  0  0  0  0  0  0  0  0  0  0
  3  8  1  0  0  0  0
  4  5  1  0  0  0  0
  4  3  2  0  0  0  0
  5  6  2  0  0  0  0
  6  8  1  0  0  0  0
  7 24  1  0  0  0  0
  7 12  1  0  0  0  0
  9  8  1  0  0  0  0
  9 12  1  0  0  0  0
  9 10  1  0  0  0  0
 11  9  1  0  0  0  0
 12 14  1  0  0  0  0
 13 12  1  0  0  0  0
 15  7  1  0  0  0  0
 16 15  1  0  0  0  0
 17 15  1  0  0  0  0
 18 15  1  0  0  0  0
 18 21  1  0  0  0  0
 19 18  1  0  0  0  0
 20 18  1  0  0  0  0
 21 23  1  0  0  0  0
 21 24  1  0  0  0  0
 22 21  1  0  0  0  0
 24 25  1  1  0  0  0
 24 26  1  0  0  0  0
 26  1  1  0  0  0  0
 26  2  2  0  0  0  0
M  CHG  1   1  -1
M  END
