2,3,5
 OpenBabel05122313063D

 25 26  0  0  1  0  0  0  0  0999 V2000
    2.6888   -1.6985   -0.9248 O   0  0  0  0  0  0  0  0  0  0  0  0
   -0.0968    1.8505    0.9771 O   0  5  0  0  0  0  0  0  0  0  0  0
   -0.8935   -1.3578   -0.7751 N   0  0  0  0  0  2  0  0  0  0  0  0
    0.0673   -3.1219   -1.7101 N   0  0  0  0  0  0  0  0  0  0  0  0
    1.1803   -0.1064   -0.0622 N   0  0  0  0  0  2  0  0  0  0  0  0
   -1.8911   -2.1849   -1.2272 C   0  0  0  0  0  0  0  0  0  0  0  0
   -2.9522   -1.9437   -1.1066 H   0  0  0  0  0  0  0  0  0  0  0  0
   -1.3038   -3.2972   -1.8157 C   0  0  0  0  0  0  0  0  0  0  0  0
   -1.7376   -4.1801   -2.2950 H   0  0  0  0  0  0  0  0  0  0  0  0
    1.1130   -4.0258   -2.1715 C   0  0  0  0  0  0  0  0  0  0  0  0
    2.0841   -3.5518   -1.9276 H   0  0  0  0  0  0  0  0  0  0  0  0
    1.0284   -4.1826   -3.2649 H   0  0  0  0  0  0  0  0  0  0  0  0
    1.0279   -5.0033   -1.6568 H   0  0  0  0  0  0  0  0  0  0  0  0
    0.2814   -1.9390   -1.0747 C   0  0  2  0  0  3  0  0  0  0  0  0
    1.5479   -1.2525   -0.6866 C   0  0  0  0  0  0  0  0  0  0  0  0
    2.0095    0.8693    0.4960 C   0  0  0  0  0  0  0  0  0  0  0  0
    3.4159    0.8859    0.5416 C   0  0  0  0  0  0  0  0  0  0  0  0
    3.9702    0.0513    0.0929 H   0  0  0  0  0  0  0  0  0  0  0  0
    4.0638    1.9731    1.1569 C   0  0  0  0  0  0  0  0  0  0  0  0
    5.1632    1.9989    1.1996 H   0  0  0  0  0  0  0  0  0  0  0  0
    3.3115    3.0221    1.7169 C   0  0  0  0  0  0  0  0  0  0  0  0
    3.8273    3.8690    2.1963 H   0  0  0  0  0  0  0  0  0  0  0  0
    1.9053    3.0086    1.6768 C   0  0  0  0  0  0  0  0  0  0  0  0
    1.3093    3.8248    2.1119 H   0  0  0  0  0  0  0  0  0  0  0  0
    1.2345    1.9295    1.0634 C   0  0  0  0  0  0  0  0  0  0  0  0
  1 15  2  0  0  0  0
  2 25  1  0  0  0  0
  4 14  1  0  0  0  0
  5 16  1  0  0  0  0
  6  7  1  0  0  0  0
  6  3  1  0  0  0  0
  8  4  1  0  0  0  0
  8  6  2  0  0  0  0
  9  8  1  0  0  0  0
 10 11  1  0  0  0  0
 10  4  1  0  0  0  0
 10 13  1  0  0  0  0
 12 10  1  0  0  0  0
 14  3  1  0  0  0  0
 14 15  1  1  0  0  0
 15  5  1  0  0  0  0
 16 17  2  0  0  0  0
 16 25  1  0  0  0  0
 17 19  1  0  0  0  0
 18 17  1  0  0  0  0
 19 20  1  0  0  0  0
 19 21  2  0  0  0  0
 21 22  1  0  0  0  0
 23 21  1  0  0  0  0
 23 24  1  0  0  0  0
 25 23  2  0  0  0  0
M  CHG  1   2  -1
M  END
