1,2,5
 OpenBabel05122313063D

 33 35  0  0  1  0  0  0  0  0999 V2000
    0.4367    1.3641   -0.7742 N   0  0  0  0  0  2  0  0  0  0  0  0
    2.2897   -0.4844    0.0208 O   0  0  0  0  0  1  0  0  0  0  0  0
    2.6603    0.6109   -0.4072 C   0  0  1  0  0  3  0  0  0  0  0  0
   -2.7035    1.3176   -0.9645 C   0  0  0  0  0  0  0  0  0  0  0  0
   -2.2542    0.0368   -0.8184 N   0  0  0  0  0  2  0  0  0  0  0  0
    4.1090    0.9660   -0.5302 C   0  0  0  0  0  0  0  0  0  0  0  0
    1.7685    1.5805   -0.8239 N   0  0  0  0  0  0  0  0  0  0  0  0
    2.1211    2.4826   -1.1719 H   0  0  0  0  0  0  0  0  0  0  0  0
   -3.1287   -0.9683   -0.8230 C   0  0  0  0  0  0  0  0  0  0  0  0
   -2.6944   -1.9813   -0.7274 H   0  0  0  0  0  0  0  0  0  0  0  0
    5.0363   -0.0916   -0.5721 C   0  0  0  0  0  0  0  0  0  0  0  0
    4.6766   -1.1292   -0.5167 H   0  0  0  0  0  0  0  0  0  0  0  0
   -4.5919    2.9284   -1.2062 C   0  0  0  0  0  3  0  0  0  0  0  0
   -5.6774    3.1011   -1.2667 H   0  0  0  0  0  0  0  0  0  0  0  0
   -4.5291   -0.7930   -0.9367 C   0  0  0  0  0  0  0  0  0  0  0  0
   -5.1908   -1.6706   -0.9266 H   0  0  0  0  0  0  0  0  0  0  0  0
   -3.6979    3.9845   -1.2722 C   0  0  0  0  0  0  0  0  0  0  0  0
   -4.0564    5.0181   -1.3819 H   0  0  0  0  0  0  0  0  0  0  0  0
   -4.1187    1.5930   -1.0686 C   0  0  0  0  0  0  0  0  0  0  0  0
   -1.7841    2.4326   -1.0533 C   0  0  0  0  0  0  0  0  0  0  0  0
    6.8774    1.4719   -0.7412 N   0  0  0  0  0  0  0  0  0  0  0  0
   -5.0223    0.4939   -1.0412 C   0  0  0  0  0  0  0  0  0  0  0  0
   -6.1036    0.6898   -1.1123 H   0  0  0  0  0  0  0  0  0  0  0  0
   -2.3134    3.7257   -1.2115 C   0  0  0  0  0  0  0  0  0  0  0  0
   -1.6115    4.5708   -1.2874 H   0  0  0  0  0  0  0  0  0  0  0  0
    4.6037    2.2840   -0.5739 C   0  0  0  0  0  0  0  0  0  0  0  0
    3.9450    3.1629   -0.4899 H   0  0  0  0  0  0  0  0  0  0  0  0
    6.3994    0.2173   -0.6850 C   0  0  0  0  0  0  0  0  0  0  0  0
    7.1461   -0.5948   -0.7312 H   0  0  0  0  0  0  0  0  0  0  0  0
    5.9908    2.4761   -0.6781 C   0  0  0  0  0  0  0  0  0  0  0  0
    6.4031    3.5005   -0.7049 H   0  0  0  0  0  0  0  0  0  0  0  0
   -0.3300    2.3788   -1.0357 C   0  0  0  0  0  3  0  0  0  0  0  0
    0.1541    3.3578   -1.2557 H   0  0  0  0  0  0  0  0  0  0  0  0
  3  2  1  6  0  0  0
  4  5  1  0  0  0  0
  6  3  1  0  0  0  0
  7  1  1  0  0  0  0
  7  3  1  0  0  0  0
  8  7  1  0  0  0  0
  9  5  1  0  0  0  0
  9 10  1  0  0  0  0
 11  6  1  0  0  0  0
 11 12  1  0  0  0  0
 13 19  1  0  0  0  0
 14 13  1  0  0  0  0
 15 16  1  0  0  0  0
 15  9  2  0  0  0  0
 17 24  2  0  0  0  0
 17 13  1  0  0  0  0
 18 17  1  0  0  0  0
 19 22  2  0  0  0  0
 19  4  1  0  0  0  0
 20 32  1  0  0  0  0
 20  4  2  0  0  0  0
 21 28  1  0  0  0  0
 21 30  2  0  0  0  0
 22 15  1  0  0  0  0
 23 22  1  0  0  0  0
 24 20  1  0  0  0  0
 25 24  1  0  0  0  0
 26  6  2  0  0  0  0
 26 27  1  0  0  0  0
 28 11  2  0  0  0  0
 29 28  1  0  0  0  0
 30 26  1  0  0  0  0
 31 30  1  0  0  0  0
 32  1  1  0  0  0  0
 33 32  1  0  0  0  0
M  END
