1,13,16
 OpenBabel05122313063D

 19 19  0  0  0  0  0  0  0  0999 V2000
    1.3659   -0.8417   -0.2118 N   0  0  0  0  0  2  0  0  0  0  0  0
    2.0205   -1.5176    0.7483 C   0  0  0  0  0  3  0  0  0  0  0  0
    1.7371   -1.2941    1.7873 H   0  0  0  0  0  0  0  0  0  0  0  0
    3.0177   -2.4509    0.4435 C   0  0  0  0  0  0  0  0  0  0  0  0
    3.5312   -2.9817    1.2566 H   0  0  0  0  0  0  0  0  0  0  0  0
    3.3378   -2.6815   -0.9055 C   0  0  0  0  0  0  0  0  0  0  0  0
    4.1172   -3.4092   -1.1757 H   0  0  0  0  0  0  0  0  0  0  0  0
    2.6608   -1.9764   -1.9043 C   0  0  0  0  0  0  0  0  0  0  0  0
    2.8906   -2.1292   -2.9682 H   0  0  0  0  0  0  0  0  0  0  0  0
    1.6656   -1.0449   -1.5422 C   0  0  0  0  0  0  0  0  0  0  0  0
    0.8986   -0.2429   -2.4639 C   0  0  0  0  0  3  0  0  0  0  0  0
    1.0237   -0.2608   -3.5569 H   0  0  0  0  0  0  0  0  0  0  0  0
    0.0280    0.5577   -1.8745 N   0  0  0  0  0  2  0  0  0  0  0  0
   -0.7836    1.4064   -2.4752 N   0  0  0  0  0  0  0  0  0  0  0  0
   -1.4835    2.0766   -1.5078 C   0  0  0  0  0  0  0  0  0  0  0  0
   -1.3471    1.8518   -0.2422 O   0  5  0  0  0  0  0  0  0  0  0  0
   -2.3581    3.0102   -1.9227 N   0  0  0  0  0  0  0  0  0  0  0  0
   -2.8803    3.5536   -1.2371 H   0  0  0  0  0  0  0  0  0  0  0  0
   -2.4463    3.2132   -2.9175 H   0  0  0  0  0  0  0  0  0  0  0  0
  1  2  1  0  0  0  0
  2  3  1  0  0  0  0
  4  2  1  0  0  0  0
  4  5  1  0  0  0  0
  6  4  2  0  0  0  0
  7  6  1  0  0  0  0
  8 10  2  0  0  0  0
  8  6  1  0  0  0  0
  9  8  1  0  0  0  0
 10  1  1  0  0  0  0
 11 13  1  0  0  0  0
 11 10  1  0  0  0  0
 12 11  1  0  0  0  0
 14 13  1  0  0  0  0
 14 15  2  0  0  0  0
 15 16  1  0  0  0  0
 17 15  1  0  0  0  0
 17 18  1  0  0  0  0
 19 17  1  0  0  0  0
M  CHG  1  16  -1
M  END
