1,2,6
 OpenBabel05122313063D

 25 25  0  0  0  0  0  0  0  0999 V2000
    1.3914    0.7495   -1.7248 N   0  0  0  0  0  2  0  0  0  0  0  0
   -0.5201    2.8882   -1.8374 N   0  0  0  0  0  0  0  0  0  0  0  0
   -1.4058    2.3879   -2.0238 H   0  0  0  0  0  0  0  0  0  0  0  0
   -0.7279    3.8853   -1.7149 H   0  0  0  0  0  0  0  0  0  0  0  0
    6.3808   -2.4518   -0.1462 N   0  0  0  0  0  0  0  0  0  0  0  0
    1.8078    0.4972    1.2002 O   0  5  0  0  0  0  0  0  0  0  0  0
    6.6481   -2.6138   -1.3422 O   0  0  0  0  0  0  0  0  0  0  0  0
    7.0586   -2.8893    0.7897 O   0  0  0  0  0  0  0  0  0  0  0  0
    2.8384   -0.1826    0.8425 C   0  0  0  0  0  0  0  0  0  0  0  0
    3.2196   -0.4254   -0.5489 C   0  0  0  0  0  0  0  0  0  0  0  0
    4.3870   -1.1717   -0.8317 C   0  0  0  0  0  0  0  0  0  0  0  0
    4.6947   -1.3602   -1.8710 H   0  0  0  0  0  0  0  0  0  0  0  0
    5.1786   -1.6868    0.1889 C   0  0  0  0  0  0  0  0  0  0  0  0
    4.8359   -1.4727    1.5459 C   0  0  0  0  0  0  0  0  0  0  0  0
    5.4870   -1.8979    2.3221 H   0  0  0  0  0  0  0  0  0  0  0  0
    3.7030   -0.7426    1.8531 C   0  0  0  0  0  0  0  0  0  0  0  0
    3.4128   -0.5620    2.8987 H   0  0  0  0  0  0  0  0  0  0  0  0
    2.4989    0.0704   -1.7000 C   0  0  0  0  0  3  0  0  0  0  0  0
    2.9791   -0.1732   -2.6778 H   0  0  0  0  0  0  0  0  0  0  0  0
    0.8335    1.1790   -2.9917 C   0  0  0  0  0  0  0  0  0  0  0  0
   -0.0865    0.5819   -3.1856 H   0  0  0  0  0  0  0  0  0  0  0  0
    1.5384    1.0137   -3.8386 H   0  0  0  0  0  0  0  0  0  0  0  0
    0.4388    2.6615   -2.9290 C   0  0  0  0  0  0  0  0  0  0  0  0
    1.3448    3.2730   -2.7339 H   0  0  0  0  0  0  0  0  0  0  0  0
    0.0410    2.9653   -3.9244 H   0  0  0  0  0  0  0  0  0  0  0  0
  1 18  1  0  0  0  0
  2  4  1  0  0  0  0
  3  2  1  0  0  0  0
  5 13  1  0  0  0  0
  5  8  2  0  0  0  0
  7  5  2  0  0  0  0
  9  6  1  0  0  0  0
  9 16  1  0  0  0  0
 10  9  2  0  0  0  0
 11 10  1  0  0  0  0
 11 13  2  0  0  0  0
 12 11  1  0  0  0  0
 13 14  1  0  0  0  0
 14 16  2  0  0  0  0
 14 15  1  0  0  0  0
 16 17  1  0  0  0  0
 18 10  1  0  0  0  0
 19 18  1  0  0  0  0
 20 23  1  0  0  0  0
 20  1  1  0  0  0  0
 21 20  1  0  0  0  0
 22 20  1  0  0  0  0
 23 24  1  0  0  0  0
 23  2  1  0  0  0  0
 25 23  1  0  0  0  0
M  CHG  1   6  -1
M  END
