1,3,4
 OpenBabel05122313063D

 40 41  0  0  0  0  0  0  0  0999 V2000
   -0.2444   -0.0803   -0.1767 O   0  5  0  0  0  0  0  0  0  0  0  0
   -1.9250   -1.4407   -1.6186 O   0  0  0  0  0  0  0  0  0  0  0  0
    2.0933    1.3185   -0.2486 N   0  0  0  0  0  2  0  0  0  0  0  0
    3.7258   -0.8247    0.0436 N   0  0  0  0  0  0  0  0  0  0  0  0
    1.2773    2.3389   -0.2431 C   0  0  0  0  0  3  0  0  0  0  0  0
   -0.1549    2.3102   -0.1419 C   0  0  0  0  0  0  0  0  0  0  0  0
   -0.8820    1.0728   -0.1123 C   0  0  0  0  0  0  0  0  0  0  0  0
   -2.3138    1.0891   -0.0341 C   0  0  0  0  0  0  0  0  0  0  0  0
   -2.9442    2.3489   -0.0001 C   0  0  0  0  0  0  0  0  0  0  0  0
   -2.2371    3.5675   -0.0274 C   0  0  0  0  0  0  0  0  0  0  0  0
   -0.8500    3.5484   -0.0984 C   0  0  0  0  0  0  0  0  0  0  0  0
    3.5236    1.5806   -0.3688 C   0  0  0  0  0  0  0  0  0  0  0  0
    4.2648    0.5012    0.4090 C   0  0  0  0  0  0  0  0  0  0  0  0
    4.0370   -1.1961   -1.3522 C   0  0  0  0  0  0  0  0  0  0  0  0
    4.2245   -1.8728    0.9598 C   0  0  0  0  0  0  0  0  0  0  0  0
   -3.1454   -0.1405    0.0601 C   0  0  0  0  0  0  0  0  0  0  0  0
   -2.9489   -1.3012   -0.7529 C   0  0  0  0  0  0  0  0  0  0  0  0
   -3.8946   -2.3508   -0.7006 C   0  0  0  0  0  0  0  0  0  0  0  0
   -4.9994   -2.2929    0.1508 C   0  0  0  0  0  0  0  0  0  0  0  0
   -5.1809   -1.1792    0.9899 C   0  0  0  0  0  0  0  0  0  0  0  0
   -4.2634   -0.1267    0.9309 C   0  0  0  0  0  0  0  0  0  0  0  0
   -1.1371   -0.9777   -1.2203 H   0  0  0  0  0  0  0  0  0  0  0  0
    1.7205    3.3563   -0.3236 H   0  0  0  0  0  0  0  0  0  0  0  0
   -4.0437    2.3708    0.0342 H   0  0  0  0  0  0  0  0  0  0  0  0
   -2.7848    4.5204   -0.0041 H   0  0  0  0  0  0  0  0  0  0  0  0
   -0.2719    4.4855   -0.1274 H   0  0  0  0  0  0  0  0  0  0  0  0
    3.7955    2.5893    0.0120 H   0  0  0  0  0  0  0  0  0  0  0  0
    3.8169    1.5555   -1.4421 H   0  0  0  0  0  0  0  0  0  0  0  0
    4.0823    0.6355    1.4939 H   0  0  0  0  0  0  0  0  0  0  0  0
    5.3632    0.5539    0.2268 H   0  0  0  0  0  0  0  0  0  0  0  0
    3.5702   -2.1753   -1.5598 H   0  0  0  0  0  0  0  0  0  0  0  0
    5.1379   -1.2484   -1.5115 H   0  0  0  0  0  0  0  0  0  0  0  0
    3.6043   -0.4640   -2.0594 H   0  0  0  0  0  0  0  0  0  0  0  0
    3.9359   -1.6150    1.9943 H   0  0  0  0  0  0  0  0  0  0  0  0
    5.3301   -1.9732    0.8741 H   0  0  0  0  0  0  0  0  0  0  0  0
    3.7348   -2.8273    0.6943 H   0  0  0  0  0  0  0  0  0  0  0  0
   -3.7141   -3.2180   -1.3524 H   0  0  0  0  0  0  0  0  0  0  0  0
   -5.7138   -3.1302    0.1756 H   0  0  0  0  0  0  0  0  0  0  0  0
   -6.0284   -1.1345    1.6895 H   0  0  0  0  0  0  0  0  0  0  0  0
   -4.3963    0.7425    1.5935 H   0  0  0  0  0  0  0  0  0  0  0  0
  1  7  1  0  0  0  0
  2 22  1  0  0  0  0
  2 17  1  0  0  0  0
  3  5  1  0  0  0  0
  4 13  1  0  0  0  0
  4 15  1  0  0  0  0
  5  6  1  0  0  0  0
  6  7  2  0  0  0  0
  6 11  1  0  0  0  0
  7  8  1  0  0  0  0
  8  9  2  0  0  0  0
  8 16  1  0  0  0  0
  9 24  1  0  0  0  0
 10 25  1  0  0  0  0
 10  9  1  0  0  0  0
 11 10  2  0  0  0  0
 12  3  1  0  0  0  0
 12 27  1  0  0  0  0
 12 13  1  0  0  0  0
 13 29  1  0  0  0  0
 14  4  1  0  0  0  0
 15 34  1  0  0  0  0
 16 21  1  0  0  0  0
 17 18  1  0  0  0  0
 17 16  2  0  0  0  0
 18 19  2  0  0  0  0
 19 38  1  0  0  0  0
 19 20  1  0  0  0  0
 20 39  1  0  0  0  0
 21 20  2  0  0  0  0
 21 40  1  0  0  0  0
 23  5  1  0  0  0  0
 26 11  1  0  0  0  0
 28 12  1  0  0  0  0
 30 13  1  0  0  0  0
 31 14  1  0  0  0  0
 32 14  1  0  0  0  0
 33 14  1  0  0  0  0
 35 15  1  0  0  0  0
 36 15  1  0  0  0  0
 37 18  1  0  0  0  0
M  CHG  1   1  -1
M  END
