1,3,4
 OpenBabel05122313063D

 29 29  0  0  0  0  0  0  0  0999 V2000
   -1.3480    0.7028   -1.2681 O   0  5  0  0  0  0  0  0  0  0  0  0
   -3.3287   -0.6888    2.2819 O   0  0  0  0  0  0  0  0  0  0  0  0
   -1.3680    0.1748    1.4410 N   0  0  0  0  0  2  0  0  0  0  0  0
    1.2558    0.2181    1.5844 N   0  0  0  0  0  0  0  0  0  0  0  0
    1.9933   -0.4279    1.2512 H   0  0  0  0  0  0  0  0  0  0  0  0
    1.7275    1.1087    1.7911 H   0  0  0  0  0  0  0  0  0  0  0  0
   -2.4536   -0.0231   -1.2677 C   0  0  0  0  0  0  0  0  0  0  0  0
   -3.0819   -0.2469   -2.5303 C   0  0  0  0  0  0  0  0  0  0  0  0
   -2.5674    0.1555   -3.4165 H   0  0  0  0  0  0  0  0  0  0  0  0
   -4.2866   -0.9429   -2.6418 C   0  0  0  0  0  0  0  0  0  0  0  0
   -4.7346   -1.0953   -3.6383 H   0  0  0  0  0  0  0  0  0  0  0  0
   -4.9193   -1.4578   -1.4930 C   0  0  0  0  0  0  0  0  0  0  0  0
   -5.8676   -2.0122   -1.5733 H   0  0  0  0  0  0  0  0  0  0  0  0
   -4.3174   -1.2499   -0.2471 C   0  0  0  0  0  0  0  0  0  0  0  0
   -4.7732   -1.6114    0.6882 H   0  0  0  0  0  0  0  0  0  0  0  0
   -3.1007   -0.5539   -0.1011 C   0  0  0  0  0  0  0  0  0  0  0  0
   -2.6072   -0.3674    1.3073 C   0  0  0  0  0  0  0  0  0  0  0  0
   -0.8356    0.3363    2.7704 C   0  0  0  0  0  0  0  0  0  0  0  0
   -1.5235   -0.1264    3.5112 H   0  0  0  0  0  0  0  0  0  0  0  0
   -0.7323    1.4203    3.0539 H   0  0  0  0  0  0  0  0  0  0  0  0
    0.5691   -0.3005    2.8192 C   0  0  0  0  0  0  0  0  0  0  0  0
    0.4582   -1.8240    2.7242 C   0  0  0  0  0  0  0  0  0  0  0  0
    1.4585   -2.2976    2.6389 H   0  0  0  0  0  0  0  0  0  0  0  0
   -0.1297   -2.0929    1.8263 H   0  0  0  0  0  0  0  0  0  0  0  0
   -0.0466   -2.2186    3.6275 H   0  0  0  0  0  0  0  0  0  0  0  0
    1.3489    0.1232    4.0683 C   0  0  0  0  0  0  0  0  0  0  0  0
    2.3704   -0.3109    4.0711 H   0  0  0  0  0  0  0  0  0  0  0  0
    0.8292   -0.2220    4.9849 H   0  0  0  0  0  0  0  0  0  0  0  0
    1.4391    1.2296    4.1313 H   0  0  0  0  0  0  0  0  0  0  0  0
  1  7  1  0  0  0  0
  3 18  1  0  0  0  0
  4  6  1  0  0  0  0
  4 21  1  0  0  0  0
  5  4  1  0  0  0  0
  7 16  1  0  0  0  0
  8  7  2  0  0  0  0
  9  8  1  0  0  0  0
 10  8  1  0  0  0  0
 10 12  2  0  0  0  0
 11 10  1  0  0  0  0
 12 14  1  0  0  0  0
 13 12  1  0  0  0  0
 14 16  2  0  0  0  0
 14 15  1  0  0  0  0
 16 17  1  0  0  0  0
 17  3  1  0  0  0  0
 17  2  2  0  0  0  0
 18 21  1  0  0  0  0
 18 20  1  0  0  0  0
 18 19  1  0  0  0  0
 21 26  1  0  0  0  0
 22 21  1  0  0  0  0
 22 25  1  0  0  0  0
 23 22  1  0  0  0  0
 24 22  1  0  0  0  0
 26 27  1  0  0  0  0
 26 29  1  0  0  0  0
 26 28  1  0  0  0  0
M  CHG  1   1  -1
M  END
