1,2,3
 OpenBabel05122313063D

 34 36  0  0  1  0  0  0  0  0999 V2000
    2.2794    0.0909   -1.1092 O   0  5  0  0  0  0  0  0  0  0  0  0
   -1.0667   -1.5120    0.4275 N   0  0  0  0  0  2  0  0  0  0  0  0
    1.6651   -1.0460    1.3319 N   0  0  0  0  0  2  0  0  0  0  0  0
   -2.7031   -1.5839    1.9309 N   0  0  0  0  0  0  0  0  0  0  0  0
   -3.1798   -1.4760    2.8254 H   0  0  0  0  0  0  0  0  0  0  0  0
   -2.1985   -2.0356   -0.1970 C   0  0  0  0  0  0  0  0  0  0  0  0
   -2.4013   -2.4794   -1.5151 C   0  0  0  0  0  0  0  0  0  0  0  0
   -1.5822   -2.4331   -2.2438 H   0  0  0  0  0  0  0  0  0  0  0  0
   -3.6745   -2.9613   -1.8373 C   0  0  0  0  0  0  0  0  0  0  0  0
   -3.8708   -3.3147   -2.8604 H   0  0  0  0  0  0  0  0  0  0  0  0
   -4.7209   -3.0034   -0.8841 C   0  0  0  0  0  0  0  0  0  0  0  0
   -5.7070   -3.3882   -1.1841 H   0  0  0  0  0  0  0  0  0  0  0  0
   -4.5323   -2.5648    0.4330 C   0  0  0  0  0  0  0  0  0  0  0  0
   -5.3456   -2.5967    1.1723 H   0  0  0  0  0  0  0  0  0  0  0  0
   -3.2550   -2.0838    0.7551 C   0  0  0  0  0  0  0  0  0  0  0  0
   -1.3970   -1.2550    1.6884 C   0  0  1  0  0  3  0  0  0  0  0  0
   -0.4208   -0.7478    2.6883 C   0  0  0  0  0  0  0  0  0  0  0  0
   -0.8039   -0.9088    3.7153 H   0  0  0  0  0  0  0  0  0  0  0  0
   -0.2709    0.3416    2.5256 H   0  0  0  0  0  0  0  0  0  0  0  0
    0.9231   -1.4765    2.5161 C   0  0  0  0  0  0  0  0  0  0  0  0
    1.5425   -1.3138    3.4245 H   0  0  0  0  0  0  0  0  0  0  0  0
    0.7286   -2.5696    2.4379 H   0  0  0  0  0  0  0  0  0  0  0  0
    2.9499   -0.8639    1.5046 C   0  0  0  0  0  3  0  0  0  0  0  0
    3.3570   -1.0687    2.5192 H   0  0  0  0  0  0  0  0  0  0  0  0
    3.9232   -0.4180    0.5520 C   0  0  0  0  0  0  0  0  0  0  0  0
    5.2949   -0.3855    0.9270 C   0  0  0  0  0  0  0  0  0  0  0  0
    5.5752   -0.7482    1.9295 H   0  0  0  0  0  0  0  0  0  0  0  0
    6.2678    0.0858    0.0538 C   0  0  0  0  0  0  0  0  0  0  0  0
    7.3266    0.0973    0.3491 H   0  0  0  0  0  0  0  0  0  0  0  0
    5.8751    0.5593   -1.2226 C   0  0  0  0  0  0  0  0  0  0  0  0
    6.6399    0.9384   -1.9187 H   0  0  0  0  0  0  0  0  0  0  0  0
    4.5399    0.5598   -1.6152 C   0  0  0  0  0  0  0  0  0  0  0  0
    4.2248    0.9323   -2.6001 H   0  0  0  0  0  0  0  0  0  0  0  0
    3.5272    0.0654   -0.7434 C   0  0  0  0  0  0  0  0  0  0  0  0
  1 34  1  0  0  0  0
  2 16  1  0  0  0  0
  3 23  1  0  0  0  0
  3 20  1  0  0  0  0
  4  5  1  0  0  0  0
  6  2  1  0  0  0  0
  6 15  1  0  0  0  0
  7  6  2  0  0  0  0
  8  7  1  0  0  0  0
  9  7  1  0  0  0  0
  9 11  2  0  0  0  0
 10  9  1  0  0  0  0
 11 13  1  0  0  0  0
 12 11  1  0  0  0  0
 13 15  2  0  0  0  0
 13 14  1  0  0  0  0
 15  4  1  0  0  0  0
 16  4  1  0  0  0  0
 16 17  1  1  0  0  0
 17 18  1  0  0  0  0
 19 17  1  0  0  0  0
 20 17  1  0  0  0  0
 20 21  1  0  0  0  0
 22 20  1  0  0  0  0
 23 24  1  0  0  0  0
 25 26  1  0  0  0  0
 25 23  1  0  0  0  0
 26 27  1  0  0  0  0
 28 29  1  0  0  0  0
 28 26  2  0  0  0  0
 30 28  1  0  0  0  0
 31 30  1  0  0  0  0
 32 30  2  0  0  0  0
 32 34  1  0  0  0  0
 33 32  1  0  0  0  0
 34 25  2  0  0  0  0
M  CHG  1   1  -1
M  END
