4,5,15
 OpenBabel05122313063D

 29 28  0  0  1  0  0  0  0  0999 V2000
   -3.5142   -0.7651   -1.2051 F   0  0  0  0  0  0  0  0  0  0  0  0
   -3.5773   -0.8430    0.9740 F   0  0  0  0  0  0  0  0  0  0  0  0
   -4.1709    0.9805   -0.0696 F   0  0  0  0  0  0  0  0  0  0  0  0
    0.8358    1.5132    0.0057 N   0  0  0  0  0  2  0  0  0  0  0  0
    2.8044   -0.2797   -0.1173 N   0  0  0  0  0  0  0  0  0  0  0  0
   -3.2936   -0.0536   -0.0805 C   0  0  0  0  0  0  0  0  0  0  0  0
   -1.8376    0.4261   -0.0236 C   0  0  1  0  0  3  0  0  0  0  0  0
   -1.5562    1.7874    0.0190 C   0  0  0  0  0  0  0  0  0  0  0  0
   -0.2330    2.3083    0.0698 C   0  0  0  0  0  0  0  0  0  0  0  0
   -0.0693    3.8049    0.2084 C   0  0  0  0  0  0  0  0  0  0  0  0
    2.1774    2.0777    0.1213 C   0  0  0  0  0  0  0  0  0  0  0  0
    3.1286    1.1033   -0.5465 C   0  0  0  0  0  0  0  0  0  0  0  0
    3.2767   -0.5697    1.2541 C   0  0  0  0  0  0  0  0  0  0  0  0
    3.3770   -1.2611   -1.0620 C   0  0  0  0  0  0  0  0  0  0  0  0
   -1.0028   -0.5520   -0.0117 O   0  0  0  0  0  1  0  0  0  0  0  0
    0.4993    4.0676    1.1248 H   0  0  0  0  0  0  0  0  0  0  0  0
    0.4841    4.2383   -0.6514 H   0  0  0  0  0  0  0  0  0  0  0  0
   -1.0539    4.3019    0.2626 H   0  0  0  0  0  0  0  0  0  0  0  0
   -2.3963    2.4906    0.0294 H   0  0  0  0  0  0  0  0  0  0  0  0
    2.2719    3.0701   -0.3676 H   0  0  0  0  0  0  0  0  0  0  0  0
    2.4458    2.2322    1.1930 H   0  0  0  0  0  0  0  0  0  0  0  0
    2.9765    1.1441   -1.6431 H   0  0  0  0  0  0  0  0  0  0  0  0
    4.1961    1.3425   -0.3370 H   0  0  0  0  0  0  0  0  0  0  0  0
    3.0259   -2.2671   -0.7692 H   0  0  0  0  0  0  0  0  0  0  0  0
    3.0105   -1.0443   -2.0827 H   0  0  0  0  0  0  0  0  0  0  0  0
    4.4887   -1.2063   -1.0477 H   0  0  0  0  0  0  0  0  0  0  0  0
    2.9064   -1.5729    1.5353 H   0  0  0  0  0  0  0  0  0  0  0  0
    2.8669    0.1713    1.9650 H   0  0  0  0  0  0  0  0  0  0  0  0
    4.3895   -0.5440    1.2998 H   0  0  0  0  0  0  0  0  0  0  0  0
  1  6  1  0  0  0  0
  4  9  1  0  0  0  0
  4 11  1  0  0  0  0
  5 13  1  0  0  0  0
  6  3  1  0  0  0  0
  6  7  1  0  0  0  0
  6  2  1  0  0  0  0
  7 15  1  1  0  0  0
  7  8  1  0  0  0  0
  8 19  1  0  0  0  0
  8  9  2  0  0  0  0
  9 10  1  0  0  0  0
 10 18  1  0  0  0  0
 10 16  1  0  0  0  0
 11 21  1  0  0  0  0
 12 23  1  0  0  0  0
 12  5  1  0  0  0  0
 12 11  1  0  0  0  0
 13 29  1  0  0  0  0
 13 27  1  0  0  0  0
 13 28  1  0  0  0  0
 14 26  1  0  0  0  0
 14 24  1  0  0  0  0
 14  5  1  0  0  0  0
 17 10  1  0  0  0  0
 20 11  1  0  0  0  0
 22 12  1  0  0  0  0
 25 14  1  0  0  0  0
M  END
