2,4,6
 OpenBabel05122313063D

 31 32  0  0  1  0  0  0  0  0999 V2000
   -1.7540    1.2462   -1.2956 P   0  0  1  0  0  0  0  0  0  0  0  0
   -1.0811    0.0752   -2.0165 O   0  0  0  0  0  1  0  0  0  0  0  0
   -2.5852    2.3453   -1.8703 O   0  0  0  0  0  0  0  0  0  0  0  0
   -1.9774   -0.7084    0.5026 N   0  0  0  0  0  2  0  0  0  0  0  0
   -2.6122    0.4020    0.0162 N   0  0  0  0  0  0  0  0  0  0  0  0
    0.2837    0.9080    0.3567 N   0  0  0  0  0  2  0  0  0  0  0  0
   -0.4370    1.8872   -0.2882 N   0  0  0  0  0  0  0  0  0  0  0  0
   -2.7385   -1.1899    1.5076 C   0  0  2  0  0  3  0  0  0  0  0  0
   -2.3749   -2.4203    2.2714 C   0  0  0  0  0  0  0  0  0  0  0  0
   -3.8767   -0.3586    1.6599 C   0  0  0  0  0  0  0  0  0  0  0  0
   -3.7704    0.6535    0.7018 C   0  0  0  0  0  0  0  0  0  0  0  0
   -4.6530    1.8205    0.4088 C   0  0  0  0  0  0  0  0  0  0  0  0
    0.8801    1.4973    1.4119 C   0  0  2  0  0  3  0  0  0  0  0  0
    1.7031    0.7500    2.4062 C   0  0  0  0  0  0  0  0  0  0  0  0
    0.5544    2.8789    1.4221 C   0  0  0  0  0  0  0  0  0  0  0  0
   -0.2998    3.1007    0.3425 C   0  0  0  0  0  0  0  0  0  0  0  0
   -0.9441    4.3522   -0.1523 C   0  0  0  0  0  0  0  0  0  0  0  0
   -3.0503   -2.5475    3.1372 H   0  0  0  0  0  0  0  0  0  0  0  0
   -2.4530   -3.3230    1.6321 H   0  0  0  0  0  0  0  0  0  0  0  0
   -1.3308   -2.3760    2.6371 H   0  0  0  0  0  0  0  0  0  0  0  0
   -4.2425    2.7504    0.8560 H   0  0  0  0  0  0  0  0  0  0  0  0
   -4.7313    2.0004   -0.6797 H   0  0  0  0  0  0  0  0  0  0  0  0
   -5.6580    1.6524    0.8374 H   0  0  0  0  0  0  0  0  0  0  0  0
    2.1379    1.4496    3.1429 H   0  0  0  0  0  0  0  0  0  0  0  0
    1.0871    0.0050    2.9478 H   0  0  0  0  0  0  0  0  0  0  0  0
    2.5264    0.1963    1.9190 H   0  0  0  0  0  0  0  0  0  0  0  0
   -0.9088    5.1322    0.6301 H   0  0  0  0  0  0  0  0  0  0  0  0
   -0.4156    4.7383   -1.0489 H   0  0  0  0  0  0  0  0  0  0  0  0
   -1.9904    4.1716   -0.4650 H   0  0  0  0  0  0  0  0  0  0  0  0
   -4.6892   -0.4874    2.3825 H   0  0  0  0  0  0  0  0  0  0  0  0
    0.9095    3.6276    2.1378 H   0  0  0  0  0  0  0  0  0  0  0  0
  1  2  1  6  0  0  0
  1  7  1  0  0  0  0
  1  5  1  0  0  0  0
  3  1  2  0  0  0  0
  4  8  1  0  0  0  0
  5  4  1  0  0  0  0
  5 11  1  0  0  0  0
  6 13  1  0  0  0  0
  7 16  1  0  0  0  0
  7  6  1  0  0  0  0
  8 10  1  0  0  0  0
  8  9  1  6  0  0  0
  9 20  1  0  0  0  0
  9 18  1  0  0  0  0
 10 30  1  0  0  0  0
 11 10  2  0  0  0  0
 12 11  1  0  0  0  0
 12 23  1  0  0  0  0
 12 21  1  0  0  0  0
 13 15  1  0  0  0  0
 13 14  1  1  0  0  0
 14 25  1  0  0  0  0
 14 24  1  0  0  0  0
 15 31  1  0  0  0  0
 16 15  2  0  0  0  0
 17 16  1  0  0  0  0
 17 27  1  0  0  0  0
 19  9  1  0  0  0  0
 22 12  1  0  0  0  0
 26 14  1  0  0  0  0
 28 17  1  0  0  0  0
 29 17  1  0  0  0  0
M  END
