3,5,7
 OpenBabel05122313063D

 33 34  0  0  1  0  0  0  0  0999 V2000
    1.2558   -0.0178   -3.1027 O   0  0  0  0  0  0  0  0  0  0  0  0
    2.1247   -0.4845   -3.0539 H   0  0  0  0  0  0  0  0  0  0  0  0
   -3.2807    0.3159    0.0084 O   0  5  0  0  0  0  0  0  0  0  0  0
   -4.8804   -0.2359   -1.5061 O   0  0  0  0  0  0  0  0  0  0  0  0
   -1.2846   -0.0846   -1.7801 N   0  0  0  0  0  0  0  0  0  0  0  0
   -0.5387   -0.6565   -2.2012 H   0  0  0  0  0  0  0  0  0  0  0  0
   -1.7412   -2.1847    0.3628 N   0  0  0  0  0  2  0  0  0  0  0  0
   -2.7413   -3.9521    1.2152 N   0  0  0  0  0  0  0  0  0  0  0  0
    1.3830    1.2140   -2.5210 C   0  0  0  0  0  0  0  0  0  0  0  0
    2.6479    1.7858   -2.2788 C   0  0  0  0  0  0  0  0  0  0  0  0
    3.5554    1.2204   -2.5435 H   0  0  0  0  0  0  0  0  0  0  0  0
    2.7432    3.0694   -1.7219 C   0  0  0  0  0  0  0  0  0  0  0  0
    3.7356    3.5093   -1.5418 H   0  0  0  0  0  0  0  0  0  0  0  0
    1.5788    3.7827   -1.3994 C   0  0  0  0  0  0  0  0  0  0  0  0
    1.6443    4.7902   -0.9641 H   0  0  0  0  0  0  0  0  0  0  0  0
    0.3249    3.1877   -1.6086 C   0  0  0  0  0  0  0  0  0  0  0  0
   -0.5907    3.7256   -1.3208 H   0  0  0  0  0  0  0  0  0  0  0  0
    0.1964    1.8987   -2.1542 C   0  0  0  0  0  0  0  0  0  0  0  0
   -1.1601    1.2680   -2.3595 C   0  0  0  0  0  0  0  0  0  0  0  0
   -1.9331    1.9064   -1.8885 H   0  0  0  0  0  0  0  0  0  0  0  0
   -1.3916    1.2335   -3.4534 H   0  0  0  0  0  0  0  0  0  0  0  0
   -2.5996   -0.6815   -2.0876 C   0  0  2  0  0  0  0  0  0  0  0  0
   -2.9163   -0.4020   -3.1186 H   0  0  0  0  0  0  0  0  0  0  0  0
   -3.7138   -0.1438   -1.1210 C   0  0  0  0  0  0  0  0  0  0  0  0
   -2.5505   -2.2200   -2.0290 C   0  0  0  0  0  0  0  0  0  0  0  0
   -3.4729   -2.5953   -2.5118 H   0  0  0  0  0  0  0  0  0  0  0  0
   -1.6974   -2.5813   -2.6519 H   0  0  0  0  0  0  0  0  0  0  0  0
   -2.4735   -2.7904   -0.6438 C   0  0  0  0  0  0  0  0  0  0  0  0
   -3.1076   -3.9055   -0.1188 C   0  0  0  0  0  0  0  0  0  0  0  0
   -3.7856   -4.6372   -0.5680 H   0  0  0  0  0  0  0  0  0  0  0  0
   -1.9264   -2.8941    1.4741 C   0  0  0  0  0  3  0  0  0  0  0  0
   -1.5350   -2.6023    2.4575 H   0  0  0  0  0  0  0  0  0  0  0  0
   -3.0627   -4.6355    1.9013 H   0  0  0  0  0  0  0  0  0  0  0  0
  1  2  1  0  0  0  0
  1  9  1  0  0  0  0
  4 24  2  0  0  0  0
  6  5  1  0  0  0  0
  7 31  1  0  0  0  0
  8 31  1  0  0  0  0
  8 33  1  0  0  0  0
  9 10  2  0  0  0  0
  9 18  1  0  0  0  0
 10 12  1  0  0  0  0
 11 10  1  0  0  0  0
 12 13  1  0  0  0  0
 12 14  2  0  0  0  0
 14 15  1  0  0  0  0
 16 14  1  0  0  0  0
 16 17  1  0  0  0  0
 18 16  2  0  0  0  0
 19 18  1  0  0  0  0
 19 20  1  0  0  0  0
 19  5  1  0  0  0  0
 21 19  1  0  0  0  0
 22 23  1  6  0  0  0
 22 25  1  0  0  0  0
 22  5  1  0  0  0  0
 22 24  1  0  0  0  0
 24  3  1  0  0  0  0
 25 28  1  0  0  0  0
 26 25  1  0  0  0  0
 27 25  1  0  0  0  0
 28 29  2  0  0  0  0
 28  7  1  0  0  0  0
 29  8  1  0  0  0  0
 30 29  1  0  0  0  0
 31 32  1  0  0  0  0
M  CHG  1   3  -1
M  END
