1,9,20
 OpenBabel05122313063D

 43 44  0  0  1  0  0  0  0  0999 V2000
    0.6558    2.0652    0.4553 N   0  0  0  0  0  0  0  0  0  0  0  0
    0.1563    2.3966    1.8069 C   0  0  0  0  0  0  0  0  0  0  0  0
    0.1649    3.4863    2.0198 H   0  0  0  0  0  0  0  0  0  0  0  0
    0.8477    1.9247    2.5394 H   0  0  0  0  0  0  0  0  0  0  0  0
   -2.3041   -4.5678    0.7295 C   0  0  0  0  0  0  0  0  0  0  0  0
   -1.2089   -4.6422    0.8723 H   0  0  0  0  0  0  0  0  0  0  0  0
   -2.6571   -5.4955    0.2371 H   0  0  0  0  0  0  0  0  0  0  0  0
   -2.7850   -4.5055    1.7271 H   0  0  0  0  0  0  0  0  0  0  0  0
   -1.4484    0.6030    1.5469 N   0  0  0  0  0  2  0  0  0  0  0  0
   -1.2435    1.8574    2.0126 C   0  0  2  0  0  3  0  0  0  0  0  0
   -2.2602    2.5992    2.6162 C   0  0  0  0  0  0  0  0  0  0  0  0
   -2.0643    3.6186    2.9769 H   0  0  0  0  0  0  0  0  0  0  0  0
   -3.5362    2.0178    2.7278 C   0  0  0  0  0  0  0  0  0  0  0  0
   -4.3625    2.5738    3.1941 H   0  0  0  0  0  0  0  0  0  0  0  0
   -3.7558    0.7418    2.2170 C   0  0  0  0  0  0  0  0  0  0  0  0
   -4.7498    0.2741    2.2600 H   0  0  0  0  0  0  0  0  0  0  0  0
   -2.6788    0.0617    1.6058 C   0  0  0  0  0  0  0  0  0  0  0  0
   -2.9218   -1.1841    1.0261 N   0  0  0  0  0  0  0  0  0  0  0  0
   -3.9103   -1.4019    0.8762 H   0  0  0  0  0  0  0  0  0  0  0  0
   -0.8106   -2.0013    0.6455 O   0  0  0  0  0  1  0  0  0  0  0  0
   -2.0433   -2.1180    0.5310 C   0  0  1  0  0  3  0  0  0  0  0  0
   -2.6585   -3.3474   -0.1498 C   0  0  0  0  0  0  0  0  0  0  0  0
   -1.9785   -3.4699   -1.5330 C   0  0  0  0  0  0  0  0  0  0  0  0
   -2.2139   -2.5921   -2.1643 H   0  0  0  0  0  0  0  0  0  0  0  0
   -2.3420   -4.3852   -2.0402 H   0  0  0  0  0  0  0  0  0  0  0  0
   -0.8800   -3.5404   -1.4198 H   0  0  0  0  0  0  0  0  0  0  0  0
   -4.1813   -3.2348   -0.3347 C   0  0  0  0  0  0  0  0  0  0  0  0
   -4.4479   -2.3532   -0.9537 H   0  0  0  0  0  0  0  0  0  0  0  0
   -4.7268   -3.2018    0.6337 H   0  0  0  0  0  0  0  0  0  0  0  0
   -4.5564   -4.1307   -0.8659 H   0  0  0  0  0  0  0  0  0  0  0  0
   -0.0720    2.8033   -0.6204 C   0  0  0  0  0  0  0  0  0  0  0  0
   -1.1570    2.6216   -0.4843 H   0  0  0  0  0  0  0  0  0  0  0  0
    0.2094    2.3384   -1.5857 H   0  0  0  0  0  0  0  0  0  0  0  0
    0.2048    4.3013   -0.6802 C   0  0  0  0  0  0  0  0  0  0  0  0
   -0.1515    4.8314    0.2292 H   0  0  0  0  0  0  0  0  0  0  0  0
   -0.3485    4.7324   -1.5378 H   0  0  0  0  0  0  0  0  0  0  0  0
    1.9703    4.6817   -0.9687 S   0  0  0  0  0  0  0  0  0  0  0  0
    2.6252    3.6723    0.4064 C   0  0  0  0  0  0  0  0  0  0  0  0
    3.7281    3.6868    0.2999 H   0  0  0  0  0  0  0  0  0  0  0  0
    2.3898    4.1497    1.3821 H   0  0  0  0  0  0  0  0  0  0  0  0
    2.1271    2.2292    0.3437 C   0  0  0  0  0  0  0  0  0  0  0  0
    2.4319    1.7893   -0.6273 H   0  0  0  0  0  0  0  0  0  0  0  0
    2.5920    1.6291    1.1539 H   0  0  0  0  0  0  0  0  0  0  0  0
  1  2  1  0  0  0  0
  2  3  1  0  0  0  0
  2  4  1  0  0  0  0
  5  6  1  0  0  0  0
  5  8  1  0  0  0  0
  7  5  1  0  0  0  0
  9 17  1  0  0  0  0
  9 10  1  0  0  0  0
 10  2  1  6  0  0  0
 10 11  1  0  0  0  0
 11 13  2  0  0  0  0
 11 12  1  0  0  0  0
 13 14  1  0  0  0  0
 15 16  1  0  0  0  0
 15 13  1  0  0  0  0
 17 15  2  0  0  0  0
 18 17  1  0  0  0  0
 19 18  1  0  0  0  0
 21 20  1  1  0  0  0
 21 18  1  0  0  0  0
 22 21  1  0  0  0  0
 22  5  1  0  0  0  0
 23 26  1  0  0  0  0
 23 22  1  0  0  0  0
 24 23  1  0  0  0  0
 25 23  1  0  0  0  0
 27 22  1  0  0  0  0
 27 29  1  0  0  0  0
 28 27  1  0  0  0  0
 30 27  1  0  0  0  0
 31 32  1  0  0  0  0
 31  1  1  0  0  0  0
 33 31  1  0  0  0  0
 34 31  1  0  0  0  0
 34 35  1  0  0  0  0
 36 34  1  0  0  0  0
 37 34  1  0  0  0  0
 37 38  1  0  0  0  0
 38 40  1  0  0  0  0
 39 38  1  0  0  0  0
 41 38  1  0  0  0  0
 41  1  1  0  0  0  0
 41 43  1  0  0  0  0
 42 41  1  0  0  0  0
M  END
