47,50,51
 OpenBabel05122313063D

 51 52  0  0  1  0  0  0  0  0999 V2000
   -1.6883    3.1663   -1.3638 C   0  0  0  0  0  0  0  0  0  0  0  0
   -0.6248    2.8696   -1.4135 H   0  0  0  0  0  0  0  0  0  0  0  0
   -1.7432    4.2744   -1.3973 H   0  0  0  0  0  0  0  0  0  0  0  0
   -2.2141    2.7721   -2.2576 H   0  0  0  0  0  0  0  0  0  0  0  0
   -3.7876    3.1988   -0.0093 C   0  0  0  0  0  0  0  0  0  0  0  0
   -4.3926    2.8732   -0.8803 H   0  0  0  0  0  0  0  0  0  0  0  0
   -3.7572    4.3067   -0.0229 H   0  0  0  0  0  0  0  0  0  0  0  0
   -4.3178    2.8928    0.9158 H   0  0  0  0  0  0  0  0  0  0  0  0
   -1.5811    3.1978    1.1627 C   0  0  0  0  0  0  0  0  0  0  0  0
   -0.5208    2.8865    1.1361 H   0  0  0  0  0  0  0  0  0  0  0  0
   -2.0372    2.8383    2.1078 H   0  0  0  0  0  0  0  0  0  0  0  0
   -1.6200    4.3071    1.1650 H   0  0  0  0  0  0  0  0  0  0  0  0
   -2.3511    2.6490   -0.0636 C   0  0  0  0  0  0  0  0  0  0  0  0
   -2.3325    1.1093   -0.0421 C   0  0  0  0  0  0  0  0  0  0  0  0
   -1.0717    0.4000   -0.0840 C   0  0  2  0  0  3  0  0  0  0  0  0
   -1.0890   -1.0444   -0.0451 C   0  0  0  0  0  0  0  0  0  0  0  0
   -2.3321   -1.7473    0.0188 C   0  0  0  0  0  0  0  0  0  0  0  0
   -2.2925   -2.8459    0.0464 H   0  0  0  0  0  0  0  0  0  0  0  0
   -3.5434   -1.0773    0.0471 C   0  0  0  0  0  0  0  0  0  0  0  0
   -3.4981    0.3514    0.0166 C   0  0  0  0  0  0  0  0  0  0  0  0
   -4.4560    0.8878    0.0434 H   0  0  0  0  0  0  0  0  0  0  0  0
   -4.9062   -1.7850    0.1127 C   0  0  0  0  0  0  0  0  0  0  0  0
   -5.7422   -1.3984   -1.1288 C   0  0  0  0  0  0  0  0  0  0  0  0
   -6.7372   -1.8892   -1.0965 H   0  0  0  0  0  0  0  0  0  0  0  0
   -5.2319   -1.7118   -2.0619 H   0  0  0  0  0  0  0  0  0  0  0  0
   -5.9102   -0.3046   -1.1883 H   0  0  0  0  0  0  0  0  0  0  0  0
   -5.6511   -1.3432    1.3932 C   0  0  0  0  0  0  0  0  0  0  0  0
   -6.6444   -1.8346    1.4549 H   0  0  0  0  0  0  0  0  0  0  0  0
   -5.8175   -0.2478    1.4162 H   0  0  0  0  0  0  0  0  0  0  0  0
   -5.0736   -1.6150    2.2998 H   0  0  0  0  0  0  0  0  0  0  0  0
   -4.7581   -3.3154    0.1409 C   0  0  0  0  0  0  0  0  0  0  0  0
   -5.7584   -3.7911    0.1873 H   0  0  0  0  0  0  0  0  0  0  0  0
   -4.1851   -3.6566    1.0268 H   0  0  0  0  0  0  0  0  0  0  0  0
   -4.2496   -3.6959   -0.7681 H   0  0  0  0  0  0  0  0  0  0  0  0
    0.1152   -1.7959   -0.0435 C   0  0  0  0  0  0  0  0  0  0  0  0
    0.0038   -2.8925    0.0325 H   0  0  0  0  0  0  0  0  0  0  0  0
    2.4925   -2.1311   -0.0281 C   0  0  0  0  0  0  0  0  0  0  0  0
    3.7153   -1.4435   -0.2012 C   0  0  0  0  0  0  0  0  0  0  0  0
    4.9416   -2.1154   -0.1474 C   0  0  0  0  0  0  0  0  0  0  0  0
    5.8767   -1.5519   -0.2852 H   0  0  0  0  0  0  0  0  0  0  0  0
    4.9584   -3.4985    0.0913 C   0  0  0  0  0  0  0  0  0  0  0  0
    5.9164   -4.0360    0.1429 H   0  0  0  0  0  0  0  0  0  0  0  0
    3.7478   -4.1900    0.2739 C   0  0  0  0  0  0  0  0  0  0  0  0
    3.7607   -5.2725    0.4705 H   0  0  0  0  0  0  0  0  0  0  0  0
    2.5183   -3.5201    0.2186 C   0  0  0  0  0  0  0  0  0  0  0  0
    1.5888   -4.0839    0.3775 H   0  0  0  0  0  0  0  0  0  0  0  0
    3.5737   -0.0325   -0.4390 N   0  0  0  0  0  0  0  0  0  0  0  0
    3.9501    0.2375   -1.3616 H   0  0  0  0  0  0  0  0  0  0  0  0
    4.0247    0.6781    0.2590 H   0  0  0  0  0  0  0  0  0  0  0  0
    1.3459   -1.3035   -0.1151 N   0  0  0  0  0  2  0  0  0  0  0  0
    0.0295    1.0856   -0.1501 O   0  0  0  0  0  1  0  0  0  0  0  0
  1 13  1  0  0  0  0
  2  1  1  0  0  0  0
  3  1  1  0  0  0  0
  4  1  1  0  0  0  0
  5  8  1  0  0  0  0
  6  5  1  0  0  0  0
  7  5  1  0  0  0  0
  9 12  1  0  0  0  0
  9 11  1  0  0  0  0
 10  9  1  0  0  0  0
 13 14  1  0  0  0  0
 13  5  1  0  0  0  0
 13  9  1  0  0  0  0
 14 20  2  0  0  0  0
 15 51  1  1  0  0  0
 15 16  1  0  0  0  0
 15 14  1  0  0  0  0
 16 35  2  0  0  0  0
 16 17  1  0  0  0  0
 17 18  1  0  0  0  0
 17 19  2  0  0  0  0
 19 22  1  0  0  0  0
 20 21  1  0  0  0  0
 20 19  1  0  0  0  0
 22 31  1  0  0  0  0
 22 27  1  0  0  0  0
 23 24  1  0  0  0  0
 23 22  1  0  0  0  0
 25 23  1  0  0  0  0
 26 23  1  0  0  0  0
 27 29  1  0  0  0  0
 27 28  1  0  0  0  0
 27 30  1  0  0  0  0
 31 32  1  0  0  0  0
 31 33  1  0  0  0  0
 34 31  1  0  0  0  0
 35 36  1  0  0  0  0
 37 45  1  0  0  0  0
 38 39  1  0  0  0  0
 38 37  2  0  0  0  0
 39 41  2  0  0  0  0
 40 39  1  0  0  0  0
 41 42  1  0  0  0  0
 41 43  1  0  0  0  0
 43 44  1  0  0  0  0
 45 43  2  0  0  0  0
 45 46  1  0  0  0  0
 47 38  1  0  0  0  0
 47 49  1  0  0  0  0
 48 47  1  0  0  0  0
 50 35  1  0  0  0  0
 50 37  1  0  0  0  0
M  END
