1,2,7
 OpenBabel05122313063D

 24 24  0  0  1  0  0  0  0  0999 V2000
   -1.2798    0.7382    0.2907 N   0  0  0  0  0  0  0  0  0  0  0  0
    0.2013   -1.3969   -0.2261 N   0  0  0  0  0  2  0  0  0  0  0  0
   -3.2987    0.4645    1.4149 O   0  0  0  0  0  0  0  0  0  0  0  0
   -1.9860    0.8145   -2.3283 O   0  0  0  0  0  0  0  0  0  0  0  0
   -1.5244   -2.6733   -1.1124 O   0  0  0  0  0  0  0  0  0  0  0  0
    3.7078   -2.0913   -0.3761 O   0  5  0  0  0  0  0  0  0  0  0  0
    2.4811   -0.2910    0.1528 O   0  0  0  0  0  0  0  0  0  0  0  0
   -2.0482    1.0935    1.5386 C   0  0  0  0  0  0  0  0  0  0  0  0
   -2.9750   -0.8098    0.8691 C   0  0  0  0  0  0  0  0  0  0  0  0
   -2.0038   -0.4591   -0.2828 C   0  0  1  0  0  0  0  0  0  0  0  0
   -2.8011   -0.0518   -1.5227 C   0  0  0  0  0  0  0  0  0  0  0  0
   -1.0588   -1.6448   -0.5969 C   0  0  0  0  0  0  0  0  0  0  0  0
    1.2893   -2.3446   -0.2789 C   0  0  0  0  0  0  0  0  0  0  0  0
    2.6206   -1.5760   -0.1728 C   0  0  0  0  0  0  0  0  0  0  0  0
   -2.4890    1.0540   -3.1267 H   0  0  0  0  0  0  0  0  0  0  0  0
   -1.4752    0.7110    2.4096 H   0  0  0  0  0  0  0  0  0  0  0  0
   -2.1927    2.1899    1.6134 H   0  0  0  0  0  0  0  0  0  0  0  0
   -3.9001   -1.3075    0.5245 H   0  0  0  0  0  0  0  0  0  0  0  0
   -2.4608   -1.4549    1.6172 H   0  0  0  0  0  0  0  0  0  0  0  0
   -3.0565   -0.9968   -2.0519 H   0  0  0  0  0  0  0  0  0  0  0  0
   -3.7305    0.4787   -1.2137 H   0  0  0  0  0  0  0  0  0  0  0  0
    1.2737   -2.9523   -1.2091 H   0  0  0  0  0  0  0  0  0  0  0  0
    1.2488   -3.0668    0.5694 H   0  0  0  0  0  0  0  0  0  0  0  0
   -1.4095    1.4939   -0.3995 H   0  0  0  0  0  0  0  0  0  0  0  0
  1  8  1  0  0  0  0
  3  8  1  0  0  0  0
  4 11  1  0  0  0  0
  5 12  2  0  0  0  0
  6 14  1  0  0  0  0
  8 17  1  0  0  0  0
  8 16  1  0  0  0  0
  9  3  1  0  0  0  0
  9 19  1  0  0  0  0
 10 12  1  6  0  0  0
 10  1  1  0  0  0  0
 10  9  1  0  0  0  0
 11 21  1  0  0  0  0
 11 10  1  0  0  0  0
 12  2  1  0  0  0  0
 13  2  1  0  0  0  0
 13 14  1  0  0  0  0
 13 23  1  0  0  0  0
 14  7  2  0  0  0  0
 15  4  1  0  0  0  0
 18  9  1  0  0  0  0
 20 11  1  0  0  0  0
 22 13  1  0  0  0  0
 24  1  1  0  0  0  0
M  CHG  1   6  -1
M  END
