15,16,17
 OpenBabel05122313063D

 30 31  0  0  1  0  0  0  0  0999 V2000
    2.3899    0.4092    0.1161 C   0  0  0  0  0  0  0  0  0  0  0  0
    2.1365    1.8111    0.3780 C   0  0  0  0  0  0  0  0  0  0  0  0
    3.2265    2.7258    0.4012 C   0  0  0  0  0  0  0  0  0  0  0  0
    4.5322    2.3123    0.1616 C   0  0  0  0  0  0  0  0  0  0  0  0
    4.7739    0.9546   -0.1280 C   0  0  0  0  0  0  0  0  0  0  0  0
    3.7439    0.0097   -0.1568 C   0  0  0  0  0  0  0  0  0  0  0  0
    4.1109   -1.4131   -0.5237 C   0  0  0  0  0  0  0  0  0  0  0  0
    0.8221    2.3540    0.5864 C   0  0  0  0  0  3  0  0  0  0  0  0
   -1.5484    2.4401    0.7790 C   0  0  0  0  0  0  0  0  0  0  0  0
   -2.7076    1.7924    0.0405 C   0  0  2  0  0  3  0  0  0  0  0  0
   -3.9186    2.4672   -0.1853 C   0  0  0  0  0  0  0  0  0  0  0  0
   -4.9637    1.7857   -0.8211 C   0  0  0  0  0  0  0  0  0  0  0  0
   -4.7750    0.4500   -1.2094 C   0  0  0  0  0  0  0  0  0  0  0  0
   -3.5382   -0.1510   -0.9547 C   0  0  0  0  0  0  0  0  0  0  0  0
   -0.3153    1.7109    0.5680 N   0  0  0  0  0  2  0  0  0  0  0  0
   -2.5351    0.5148   -0.3490 N   0  0  0  0  0  2  0  0  0  0  0  0
    1.4394   -0.4880    0.1178 O   0  5  0  0  0  0  0  0  0  0  0  0
    3.1034   -2.3037   -0.4854 O   0  0  0  0  0  0  0  0  0  0  0  0
    5.2448   -1.7268   -0.8406 O   0  0  0  0  0  0  0  0  0  0  0  0
    2.2898   -1.7949   -0.1681 H   0  0  0  0  0  0  0  0  0  0  0  0
    3.0110    3.7864    0.6110 H   0  0  0  0  0  0  0  0  0  0  0  0
    5.3612    3.0337    0.1850 H   0  0  0  0  0  0  0  0  0  0  0  0
    5.7861    0.5826   -0.3511 H   0  0  0  0  0  0  0  0  0  0  0  0
    0.7961    3.4535    0.7636 H   0  0  0  0  0  0  0  0  0  0  0  0
   -1.4657    3.5123    0.4895 H   0  0  0  0  0  0  0  0  0  0  0  0
   -1.8042    2.4294    1.8663 H   0  0  0  0  0  0  0  0  0  0  0  0
   -4.0340    3.5135    0.1350 H   0  0  0  0  0  0  0  0  0  0  0  0
   -5.9210    2.2936   -1.0125 H   0  0  0  0  0  0  0  0  0  0  0  0
   -5.5726   -0.1220   -1.7039 H   0  0  0  0  0  0  0  0  0  0  0  0
   -3.3309   -1.2006   -1.2168 H   0  0  0  0  0  0  0  0  0  0  0  0
  1 17  1  0  0  0  0
  1  2  1  0  0  0  0
  2  3  2  0  0  0  0
  2  8  1  0  0  0  0
  3 21  1  0  0  0  0
  4 22  1  0  0  0  0
  4  3  1  0  0  0  0
  5  4  2  0  0  0  0
  6  5  1  0  0  0  0
  6  1  2  0  0  0  0
  7 18  1  0  0  0  0
  7  6  1  0  0  0  0
  8 24  1  0  0  0  0
  9 26  1  0  0  0  0
 10  9  1  1  0  0  0
 11 10  1  0  0  0  0
 11 27  1  0  0  0  0
 12 11  2  0  0  0  0
 13 14  2  0  0  0  0
 13 12  1  0  0  0  0
 14 16  1  0  0  0  0
 15  8  1  0  0  0  0
 15  9  1  0  0  0  0
 16 10  1  0  0  0  0
 18 20  1  0  0  0  0
 19  7  2  0  0  0  0
 23  5  1  0  0  0  0
 25  9  1  0  0  0  0
 28 12  1  0  0  0  0
 29 13  1  0  0  0  0
 30 14  1  0  0  0  0
M  CHG  1  17  -1
M  END
