2,6,7
 OpenBabel05122313063D

 32 33  0  0  0  0  0  0  0  0999 V2000
   -5.0737   -0.0390    0.4388 S   0  0  0  0  0  0  0  0  0  0  0  0
   -1.9878   -0.5424    0.6562 O   0  5  0  0  0  0  0  0  0  0  0  0
   -6.5037    0.1813    0.7318 O   0  0  0  0  0  0  0  0  0  0  0  0
   -4.4861    0.3548   -0.8619 O   0  0  0  0  0  0  0  0  0  0  0  0
   -1.5580   -2.1037   -1.0451 N   0  0  0  0  0  0  0  0  0  0  0  0
   -0.5678   -1.2846   -1.4130 N   0  0  0  0  0  2  0  0  0  0  0  0
    1.2912    0.5765   -2.2005 N   0  0  0  0  0  2  0  0  0  0  0  0
   -4.2079    0.7653    1.6334 N   0  0  0  0  0  0  0  0  0  0  0  0
   -3.2276    0.4112    1.5764 H   0  0  0  0  0  0  0  0  0  0  0  0
   -4.6417    0.5890    2.5484 H   0  0  0  0  0  0  0  0  0  0  0  0
   -4.7414   -1.8150    0.6382 C   0  0  0  0  0  0  0  0  0  0  0  0
   -5.8409   -2.6102    0.9916 C   0  0  0  0  0  0  0  0  0  0  0  0
   -6.8033   -2.1147    1.1854 H   0  0  0  0  0  0  0  0  0  0  0  0
   -5.7016   -4.0040    1.0631 C   0  0  0  0  0  0  0  0  0  0  0  0
   -6.5644   -4.6257    1.3456 H   0  0  0  0  0  0  0  0  0  0  0  0
   -4.4689   -4.5972    0.7516 C   0  0  0  0  0  0  0  0  0  0  0  0
   -4.3564   -5.6913    0.7886 H   0  0  0  0  0  0  0  0  0  0  0  0
   -3.3772   -3.7986    0.3841 C   0  0  0  0  0  0  0  0  0  0  0  0
   -2.4095   -4.2471    0.1182 H   0  0  0  0  0  0  0  0  0  0  0  0
   -3.4836   -2.3940    0.3395 C   0  0  0  0  0  0  0  0  0  0  0  0
   -2.2689   -1.5919   -0.0158 C   0  0  0  0  0  0  0  0  0  0  0  0
    0.2461   -1.5990   -2.3795 C   0  0  0  0  0  0  0  0  0  0  0  0
    0.1670   -2.5784   -2.8862 H   0  0  0  0  0  0  0  0  0  0  0  0
    1.2591   -0.6370   -2.8104 C   0  0  0  0  0  0  0  0  0  0  0  0
    2.1725   -0.9594   -3.8359 C   0  0  0  0  0  0  0  0  0  0  0  0
    2.1306   -1.9530   -4.3054 H   0  0  0  0  0  0  0  0  0  0  0  0
    3.1245   -0.0125   -4.2237 C   0  0  0  0  0  0  0  0  0  0  0  0
    3.8513   -0.2486   -5.0153 H   0  0  0  0  0  0  0  0  0  0  0  0
    3.1526    1.2312   -3.5780 C   0  0  0  0  0  0  0  0  0  0  0  0
    3.8950    1.9984   -3.8384 H   0  0  0  0  0  0  0  0  0  0  0  0
    2.2160    1.4721   -2.5618 C   0  0  0  0  0  0  0  0  0  0  0  0
    2.2139    2.4258   -2.0073 H   0  0  0  0  0  0  0  0  0  0  0  0
  1 11  1  0  0  0  0
  1  3  2  0  0  0  0
  1  8  1  0  0  0  0
  4  1  2  0  0  0  0
  5 21  2  0  0  0  0
  6  5  1  0  0  0  0
  8 10  1  0  0  0  0
  9  8  1  0  0  0  0
 11 12  1  0  0  0  0
 12 14  2  0  0  0  0
 12 13  1  0  0  0  0
 14 15  1  0  0  0  0
 16 17  1  0  0  0  0
 16 14  1  0  0  0  0
 18 16  2  0  0  0  0
 19 18  1  0  0  0  0
 20 18  1  0  0  0  0
 20 11  2  0  0  0  0
 21 20  1  0  0  0  0
 21  2  1  0  0  0  0
 22  6  1  0  0  0  0
 23 22  1  0  0  0  0
 24 22  2  0  0  0  0
 24  7  1  0  0  0  0
 25 24  1  0  0  0  0
 26 25  1  0  0  0  0
 27 25  2  0  0  0  0
 27 29  1  0  0  0  0
 28 27  1  0  0  0  0
 29 31  2  0  0  0  0
 30 29  1  0  0  0  0
 31  7  1  0  0  0  0
 31 32  1  0  0  0  0
M  CHG  1   2  -1
M  END
