1,2,3
 OpenBabel05122313063D

 48 49  0  0  1  0  0  0  0  0999 V2000
    1.1892    0.7823    0.5711 N   0  0  0  0  0  2  0  0  0  0  0  0
   -1.1639    0.4537    0.0305 N   0  0  0  0  0  2  0  0  0  0  0  0
    2.3526   -1.0811   -0.6472 O   0  5  0  0  0  0  0  0  0  0  0  0
    4.4383   -0.5032    0.0480 O   0  0  0  0  0  0  0  0  0  0  0  0
    2.5497    0.7928    0.7320 C   0  0  0  0  0  0  0  0  0  0  0  0
    3.1795    1.7832    1.4956 C   0  0  0  0  0  0  0  0  0  0  0  0
    4.2721    1.7609    1.6069 H   0  0  0  0  0  0  0  0  0  0  0  0
    2.3870    2.7878    2.0808 C   0  0  0  0  0  0  0  0  0  0  0  0
    2.8550    3.5780    2.6844 H   0  0  0  0  0  0  0  0  0  0  0  0
    0.9954    2.7909    1.8763 C   0  0  0  0  0  0  0  0  0  0  0  0
    0.3653    3.5807    2.3090 H   0  0  0  0  0  0  0  0  0  0  0  0
    0.3979    1.7782    1.1051 C   0  0  0  0  0  0  0  0  0  0  0  0
   -0.9897    1.5443    0.7891 C   0  0  2  0  0  3  0  0  0  0  0  0
   -2.0934    2.4011    1.3223 C   0  0  0  0  0  0  0  0  0  0  0  0
   -3.0510    2.1718    0.8210 H   0  0  0  0  0  0  0  0  0  0  0  0
   -1.8593    3.4738    1.1648 H   0  0  0  0  0  0  0  0  0  0  0  0
   -2.2318    2.2503    2.4145 H   0  0  0  0  0  0  0  0  0  0  0  0
   -2.4766   -0.0982   -0.1257 C   0  0  0  0  0  0  0  0  0  0  0  0
   -3.1458   -0.0174   -1.3748 C   0  0  0  0  0  0  0  0  0  0  0  0
   -4.4303   -0.5849   -1.4706 C   0  0  0  0  0  0  0  0  0  0  0  0
   -4.9613   -0.5187   -2.4331 H   0  0  0  0  0  0  0  0  0  0  0  0
   -5.0311   -1.2217   -0.3791 C   0  0  0  0  0  0  0  0  0  0  0  0
   -6.0351   -1.6614   -0.4787 H   0  0  0  0  0  0  0  0  0  0  0  0
   -4.3474   -1.3020    0.8393 C   0  0  0  0  0  0  0  0  0  0  0  0
   -4.8175   -1.8127    1.6925 H   0  0  0  0  0  0  0  0  0  0  0  0
   -3.0636   -0.7492    0.9974 C   0  0  0  0  0  0  0  0  0  0  0  0
   -2.3469   -0.8550    2.3313 C   0  0  0  0  0  0  0  0  0  0  0  0
   -1.2706   -0.6543    2.1755 H   0  0  0  0  0  0  0  0  0  0  0  0
   -2.7257   -0.0523    3.0059 H   0  0  0  0  0  0  0  0  0  0  0  0
   -2.4828   -2.2119    3.0280 C   0  0  0  0  0  0  0  0  0  0  0  0
   -1.8966   -2.2217    3.9688 H   0  0  0  0  0  0  0  0  0  0  0  0
   -2.0894   -3.0119    2.3706 H   0  0  0  0  0  0  0  0  0  0  0  0
   -3.5310   -2.4569    3.2930 H   0  0  0  0  0  0  0  0  0  0  0  0
   -2.5535    0.6851   -2.5739 C   0  0  0  0  0  0  0  0  0  0  0  0
   -3.1582    0.4102   -3.4624 H   0  0  0  0  0  0  0  0  0  0  0  0
   -1.5233    0.3169   -2.7573 H   0  0  0  0  0  0  0  0  0  0  0  0
   -2.4923    2.2144   -2.4522 C   0  0  0  0  0  0  0  0  0  0  0  0
   -2.1433    2.6620   -3.4042 H   0  0  0  0  0  0  0  0  0  0  0  0
   -1.7697    2.5249   -1.6729 H   0  0  0  0  0  0  0  0  0  0  0  0
   -3.4853    2.6469   -2.2101 H   0  0  0  0  0  0  0  0  0  0  0  0
    3.1223   -0.3299   -0.0084 C   0  0  0  0  0  0  0  0  0  0  0  0
    4.9715   -1.6175   -0.7183 C   0  0  0  0  0  0  0  0  0  0  0  0
    4.4913   -2.5500   -0.3557 H   0  0  0  0  0  0  0  0  0  0  0  0
    4.6681   -1.4853   -1.7777 H   0  0  0  0  0  0  0  0  0  0  0  0
    6.4731   -1.6264   -0.5379 C   0  0  0  0  0  0  0  0  0  0  0  0
    6.9115   -2.4665   -1.1114 H   0  0  0  0  0  0  0  0  0  0  0  0
    6.7473   -1.7552    0.5277 H   0  0  0  0  0  0  0  0  0  0  0  0
    6.9253   -0.6840   -0.9051 H   0  0  0  0  0  0  0  0  0  0  0  0
  1  5  1  0  0  0  0
  1 12  1  0  0  0  0
  3 41  1  0  0  0  0
  5  6  1  0  0  0  0
  6  7  1  0  0  0  0
  6  8  2  0  0  0  0
  8  9  1  0  0  0  0
 10  8  1  0  0  0  0
 10 11  1  0  0  0  0
 12 10  2  0  0  0  0
 13  2  1  1  0  0  0
 13 12  1  0  0  0  0
 13 14  1  0  0  0  0
 14 17  1  0  0  0  0
 15 14  1  0  0  0  0
 16 14  1  0  0  0  0
 18  2  1  0  0  0  0
 18 26  1  0  0  0  0
 19 18  2  0  0  0  0
 20 19  1  0  0  0  0
 20 22  2  0  0  0  0
 21 20  1  0  0  0  0
 22 24  1  0  0  0  0
 23 22  1  0  0  0  0
 24 26  2  0  0  0  0
 24 25  1  0  0  0  0
 26 27  1  0  0  0  0
 27 29  1  0  0  0  0
 27 30  1  0  0  0  0
 28 27  1  0  0  0  0
 30 33  1  0  0  0  0
 30 31  1  0  0  0  0
 32 30  1  0  0  0  0
 34 37  1  0  0  0  0
 34 19  1  0  0  0  0
 35 34  1  0  0  0  0
 36 34  1  0  0  0  0
 37 40  1  0  0  0  0
 37 39  1  0  0  0  0
 38 37  1  0  0  0  0
 41  4  1  0  0  0  0
 41  5  2  0  0  0  0
 42 45  1  0  0  0  0
 42 43  1  0  0  0  0
 42  4  1  0  0  0  0
 44 42  1  0  0  0  0
 45 47  1  0  0  0  0
 46 45  1  0  0  0  0
 48 45  1  0  0  0  0
M  CHG  1   3  -1
M  END
