1,2,5
 OpenBabel05122313063D

 36 37  0  0  1  0  0  0  0  0999 V2000
    1.2029    0.9861    0.0931 N   0  0  0  0  0  2  0  0  0  0  0  0
   -1.1492    0.4329    0.2248 N   0  0  0  0  0  2  0  0  0  0  0  0
   -2.5730   -0.8610    2.5733 Cl  0  0  0  0  0  0  0  0  0  0  0  0
   -2.2353    1.0312   -2.5255 Cl  0  0  0  0  0  0  0  0  0  0  0  0
    2.3145   -1.2289   -0.2903 O   0  5  0  0  0  0  0  0  0  0  0  0
    4.4282   -0.3934   -0.3403 O   0  0  0  0  0  0  0  0  0  0  0  0
    2.5694    1.0709    0.0117 C   0  0  0  0  0  0  0  0  0  0  0  0
    3.2272    2.2993    0.1378 C   0  0  0  0  0  0  0  0  0  0  0  0
    4.3228    2.3314    0.0644 H   0  0  0  0  0  0  0  0  0  0  0  0
    2.4577    3.4545    0.3729 C   0  0  0  0  0  0  0  0  0  0  0  0
    2.9480    4.4326    0.4759 H   0  0  0  0  0  0  0  0  0  0  0  0
    1.0614    3.3531    0.4950 C   0  0  0  0  0  0  0  0  0  0  0  0
    0.4517    4.2444    0.6998 H   0  0  0  0  0  0  0  0  0  0  0  0
    0.4322    2.1017    0.3614 C   0  0  0  0  0  0  0  0  0  0  0  0
   -0.9620    1.7464    0.4149 C   0  0  1  0  0  3  0  0  0  0  0  0
   -2.0793    2.7269    0.5711 C   0  0  0  0  0  0  0  0  0  0  0  0
   -2.8873    2.2998    1.1963 H   0  0  0  0  0  0  0  0  0  0  0  0
   -2.5187    2.9855   -0.4162 H   0  0  0  0  0  0  0  0  0  0  0  0
   -1.7270    3.6611    1.0465 H   0  0  0  0  0  0  0  0  0  0  0  0
   -2.4508   -0.0705   -0.0282 C   0  0  0  0  0  0  0  0  0  0  0  0
   -3.1851   -0.7772    0.9519 C   0  0  0  0  0  0  0  0  0  0  0  0
   -4.4215   -1.3696    0.6512 C   0  0  0  0  0  0  0  0  0  0  0  0
   -4.9560   -1.9129    1.4422 H   0  0  0  0  0  0  0  0  0  0  0  0
   -4.9518   -1.2469   -0.6387 C   0  0  0  0  0  0  0  0  0  0  0  0
   -5.9164   -1.7171   -0.8801 H   0  0  0  0  0  0  0  0  0  0  0  0
   -4.2712   -0.5135   -1.6199 C   0  0  0  0  0  0  0  0  0  0  0  0
   -4.6827   -0.3897   -2.6306 H   0  0  0  0  0  0  0  0  0  0  0  0
   -3.0381    0.0754   -1.3106 C   0  0  0  0  0  0  0  0  0  0  0  0
    3.1118   -0.2665   -0.2106 C   0  0  0  0  0  0  0  0  0  0  0  0
    4.9242   -1.7454   -0.5357 C   0  0  0  0  0  0  0  0  0  0  0  0
    4.4564   -2.1588   -1.4533 H   0  0  0  0  0  0  0  0  0  0  0  0
    4.5766   -2.3675    0.3153 H   0  0  0  0  0  0  0  0  0  0  0  0
    6.4321   -1.6757   -0.6306 C   0  0  0  0  0  0  0  0  0  0  0  0
    6.8428   -2.6935   -0.7795 H   0  0  0  0  0  0  0  0  0  0  0  0
    6.8718   -1.2577    0.2964 H   0  0  0  0  0  0  0  0  0  0  0  0
    6.7506   -1.0460   -1.4847 H   0  0  0  0  0  0  0  0  0  0  0  0
  1 14  1  0  0  0  0
  4 28  1  0  0  0  0
  5 29  1  0  0  0  0
  6 29  1  0  0  0  0
  7  1  1  0  0  0  0
  7  8  1  0  0  0  0
  8 10  2  0  0  0  0
  9  8  1  0  0  0  0
 10 11  1  0  0  0  0
 10 12  1  0  0  0  0
 12 13  1  0  0  0  0
 14 15  1  0  0  0  0
 14 12  2  0  0  0  0
 15  2  1  6  0  0  0
 15 16  1  0  0  0  0
 16 19  1  0  0  0  0
 16 17  1  0  0  0  0
 18 16  1  0  0  0  0
 20  2  1  0  0  0  0
 20 21  1  0  0  0  0
 21  3  1  0  0  0  0
 22 21  2  0  0  0  0
 22 23  1  0  0  0  0
 24 22  1  0  0  0  0
 25 24  1  0  0  0  0
 26 28  1  0  0  0  0
 26 24  2  0  0  0  0
 27 26  1  0  0  0  0
 28 20  2  0  0  0  0
 29  7  2  0  0  0  0
 30  6  1  0  0  0  0
 30 32  1  0  0  0  0
 31 30  1  0  0  0  0
 33 30  1  0  0  0  0
 33 35  1  0  0  0  0
 34 33  1  0  0  0  0
 36 33  1  0  0  0  0
M  CHG  1   5  -1
M  END
