1,3,4
 OpenBabel05122313063D

 54 55  0  0  1  0  0  0  0  0999 V2000
   -2.5329   -0.6187   -1.0615 O   0  0  0  0  0  1  0  0  0  0  0  0
   -4.6372    0.0155   -0.4775 O   0  0  0  0  0  0  0  0  0  0  0  0
    0.9628    0.1311    0.4654 N   0  0  0  0  0  2  0  0  0  0  0  0
   -1.4039    0.5980    0.8178 N   0  0  0  0  0  2  0  0  0  0  0  0
    2.5066    3.5707   -0.1413 C   0  0  0  0  0  0  0  0  0  0  0  0
    2.4669    3.3170    0.9352 H   0  0  0  0  0  0  0  0  0  0  0  0
    1.8908    4.4799   -0.3005 H   0  0  0  0  0  0  0  0  0  0  0  0
    3.5586    3.8313   -0.3815 H   0  0  0  0  0  0  0  0  0  0  0  0
    2.0197    2.8373   -2.5110 C   0  0  0  0  0  0  0  0  0  0  0  0
    1.6665    2.0069   -3.1507 H   0  0  0  0  0  0  0  0  0  0  0  0
    3.0318    3.1435   -2.8475 H   0  0  0  0  0  0  0  0  0  0  0  0
    1.3464    3.7056   -2.6642 H   0  0  0  0  0  0  0  0  0  0  0  0
    2.0105    2.4172   -1.0322 C   0  0  0  0  0  0  0  0  0  0  0  0
    0.9572    2.1954   -0.7688 H   0  0  0  0  0  0  0  0  0  0  0  0
    2.8122    1.1402   -0.7948 C   0  0  0  0  0  0  0  0  0  0  0  0
    4.1234    1.0382   -1.2931 C   0  0  0  0  0  0  0  0  0  0  0  0
    4.5503    1.8867   -1.8489 H   0  0  0  0  0  0  0  0  0  0  0  0
    4.8887   -0.1192   -1.1060 C   0  0  0  0  0  0  0  0  0  0  0  0
    5.9124   -0.1743   -1.5066 H   0  0  0  0  0  0  0  0  0  0  0  0
    4.3433   -1.2084   -0.4183 C   0  0  0  0  0  0  0  0  0  0  0  0
    4.9404   -2.1228   -0.2825 H   0  0  0  0  0  0  0  0  0  0  0  0
    3.0385   -1.1602    0.1075 C   0  0  0  0  0  0  0  0  0  0  0  0
    2.2900    0.0279   -0.0756 C   0  0  0  0  0  0  0  0  0  0  0  0
    2.4451   -2.3737    0.8039 C   0  0  0  0  0  0  0  0  0  0  0  0
    1.4934   -2.0645    1.2797 H   0  0  0  0  0  0  0  0  0  0  0  0
    3.3550   -2.9353    1.9057 C   0  0  0  0  0  0  0  0  0  0  0  0
    3.6102   -2.1599    2.6569 H   0  0  0  0  0  0  0  0  0  0  0  0
    4.3076   -3.3358    1.5000 H   0  0  0  0  0  0  0  0  0  0  0  0
    2.8478   -3.7685    2.4335 H   0  0  0  0  0  0  0  0  0  0  0  0
    2.0826   -3.4433   -0.2420 C   0  0  0  0  0  0  0  0  0  0  0  0
    1.4238   -3.0171   -1.0240 H   0  0  0  0  0  0  0  0  0  0  0  0
    1.5411   -4.2860    0.2330 H   0  0  0  0  0  0  0  0  0  0  0  0
    2.9923   -3.8425   -0.7381 H   0  0  0  0  0  0  0  0  0  0  0  0
    1.8487    1.2273    2.5502 C   0  0  0  0  0  0  0  0  0  0  0  0
    2.8481    1.1073    2.0956 H   0  0  0  0  0  0  0  0  0  0  0  0
    1.8111    0.5965    3.4649 H   0  0  0  0  0  0  0  0  0  0  0  0
    1.7258    2.2805    2.8735 H   0  0  0  0  0  0  0  0  0  0  0  0
    0.7669    0.8070    1.6056 C   0  0  0  0  0  0  0  0  0  0  0  0
   -0.6274    1.0941    1.8429 C   0  0  0  0  0  0  0  0  0  0  0  0
   -1.2426    1.8053    2.8888 C   0  0  0  0  0  0  0  0  0  0  0  0
   -0.6260    2.2017    3.7078 H   0  0  0  0  0  0  0  0  0  0  0  0
   -2.6369    1.9899    2.8844 C   0  0  0  0  0  0  0  0  0  0  0  0
   -3.1188    2.5498    3.6981 H   0  0  0  0  0  0  0  0  0  0  0  0
   -3.4158    1.4321    1.8538 C   0  0  0  0  0  0  0  0  0  0  0  0
   -4.5108    1.5175    1.8363 H   0  0  0  0  0  0  0  0  0  0  0  0
   -2.7673    0.7209    0.8364 C   0  0  0  0  0  0  0  0  0  0  0  0
   -3.3210   -0.0125   -0.3002 C   0  0  2  0  0  3  0  0  0  0  0  0
   -5.1506   -0.7508   -1.6012 C   0  0  0  0  0  0  0  0  0  0  0  0
   -4.8178   -1.8031   -1.4832 H   0  0  0  0  0  0  0  0  0  0  0  0
   -4.6821   -0.3632   -2.5296 H   0  0  0  0  0  0  0  0  0  0  0  0
   -6.6566   -0.6117   -1.6062 C   0  0  0  0  0  0  0  0  0  0  0  0
   -7.0801   -1.1859   -2.4534 H   0  0  0  0  0  0  0  0  0  0  0  0
   -6.9602    0.4476   -1.7206 H   0  0  0  0  0  0  0  0  0  0  0  0
   -7.0972   -1.0037   -0.6684 H   0  0  0  0  0  0  0  0  0  0  0  0
  2 47  1  0  0  0  0
  3 38  1  0  0  0  0
  4 46  1  0  0  0  0
  4 39  1  0  0  0  0
  5  6  1  0  0  0  0
  7  5  1  0  0  0  0
  8  5  1  0  0  0  0
  9 13  1  0  0  0  0
 10  9  1  0  0  0  0
 11  9  1  0  0  0  0
 12  9  1  0  0  0  0
 13 15  1  0  0  0  0
 13 14  1  0  0  0  0
 13  5  1  0  0  0  0
 15 23  1  0  0  0  0
 16 18  1  0  0  0  0
 16 15  2  0  0  0  0
 17 16  1  0  0  0  0
 18 20  2  0  0  0  0
 19 18  1  0  0  0  0
 20 21  1  0  0  0  0
 20 22  1  0  0  0  0
 22 24  1  0  0  0  0
 23 22  2  0  0  0  0
 23  3  1  0  0  0  0
 24 25  1  0  0  0  0
 24 26  1  0  0  0  0
 26 29  1  0  0  0  0
 26 27  1  0  0  0  0
 28 26  1  0  0  0  0
 30 32  1  0  0  0  0
 30 24  1  0  0  0  0
 31 30  1  0  0  0  0
 33 30  1  0  0  0  0
 34 37  1  0  0  0  0
 34 36  1  0  0  0  0
 35 34  1  0  0  0  0
 38 39  2  0  0  0  0
 38 34  1  0  0  0  0
 39 40  1  0  0  0  0
 40 41  1  0  0  0  0
 42 40  2  0  0  0  0
 42 43  1  0  0  0  0
 44 42  1  0  0  0  0
 45 44  1  0  0  0  0
 46 44  2  0  0  0  0
 47  1  1  6  0  0  0
 47 46  1  0  0  0  0
 48 49  1  0  0  0  0
 48  2  1  0  0  0  0
 50 48  1  0  0  0  0
 51 48  1  0  0  0  0
 51 54  1  0  0  0  0
 52 51  1  0  0  0  0
 53 51  1  0  0  0  0
M  END
