1,17,25
 OpenBabel05122313063D

 27 27  0  0  1  0  0  0  0  0999 V2000
   -0.2442   -1.5072    0.2948 O   0  5  0  0  0  0  0  0  0  0  0  0
   -1.4973   -1.4497   -0.0976 C   0  0  0  0  0  0  0  0  0  0  0  0
   -2.3268   -2.5471    0.2686 C   0  0  0  0  0  0  0  0  0  0  0  0
   -1.8644   -3.3498    0.8603 H   0  0  0  0  0  0  0  0  0  0  0  0
   -3.6704   -2.5869   -0.0788 C   0  0  0  0  0  0  0  0  0  0  0  0
   -4.2884   -3.4399    0.2403 H   0  0  0  0  0  0  0  0  0  0  0  0
   -4.2495   -1.5283   -0.8165 C   0  0  0  0  0  0  0  0  0  0  0  0
   -5.3198   -1.5412   -1.0644 H   0  0  0  0  0  0  0  0  0  0  0  0
   -3.4550   -0.4663   -1.2175 C   0  0  0  0  0  0  0  0  0  0  0  0
   -3.9293    0.3551   -1.7687 H   0  0  0  0  0  0  0  0  0  0  0  0
   -2.0613   -0.3857   -0.9002 C   0  0  0  0  0  0  0  0  0  0  0  0
   -1.2770    0.7323   -1.3797 C   0  0  1  0  0  3  0  0  0  0  0  0
   -1.8774    1.6886   -2.3820 C   0  0  0  0  0  0  0  0  0  0  0  0
   -2.2438    2.6001   -1.8636 H   0  0  0  0  0  0  0  0  0  0  0  0
   -2.7231    1.2375   -2.9230 H   0  0  0  0  0  0  0  0  0  0  0  0
   -1.1403    2.0042   -3.1433 H   0  0  0  0  0  0  0  0  0  0  0  0
   -0.0404    0.9697   -0.9310 N   0  0  0  0  0  2  0  0  0  0  0  0
    0.6849    2.1087   -1.2851 C   0  0  0  0  0  0  0  0  0  0  0  0
    0.3203    2.7688   -2.0834 H   0  0  0  0  0  0  0  0  0  0  0  0
    1.8131    2.4260   -0.5999 C   0  0  0  0  0  0  0  0  0  0  0  0
    2.6795    3.6224   -0.8080 C   0  0  0  0  0  0  0  0  0  0  0  0
    2.3416    4.2153   -1.6780 H   0  0  0  0  0  0  0  0  0  0  0  0
    3.7405    3.3374   -0.9832 H   0  0  0  0  0  0  0  0  0  0  0  0
    2.6695    4.2879    0.0829 H   0  0  0  0  0  0  0  0  0  0  0  0
    2.1122    1.5300    0.5106 N   0  0  0  0  0  0  0  0  0  0  0  0
    3.1292    1.3668    0.5934 H   0  0  0  0  0  0  0  0  0  0  0  0
    1.8025    1.9611    1.4041 H   0  0  0  0  0  0  0  0  0  0  0  0
  2  3  1  0  0  0  0
  2  1  1  0  0  0  0
  3  4  1  0  0  0  0
  5  6  1  0  0  0  0
  5  3  2  0  0  0  0
  7  5  1  0  0  0  0
  8  7  1  0  0  0  0
  9 11  1  0  0  0  0
  9  7  2  0  0  0  0
 10  9  1  0  0  0  0
 11  2  2  0  0  0  0
 12 17  1  1  0  0  0
 12 11  1  0  0  0  0
 13 14  1  0  0  0  0
 13 12  1  0  0  0  0
 15 13  1  0  0  0  0
 16 13  1  0  0  0  0
 18 17  1  0  0  0  0
 18 20  2  0  0  0  0
 19 18  1  0  0  0  0
 20 25  1  0  0  0  0
 21 20  1  0  0  0  0
 21 24  1  0  0  0  0
 22 21  1  0  0  0  0
 23 21  1  0  0  0  0
 25 26  1  0  0  0  0
 25 27  1  0  0  0  0
M  CHG  1   1  -1
M  END
