3,4,6
 OpenBabel05122313063D

 38 38  0  0  0  0  0  0  0  0999 V2000
    6.6466    0.2853    0.4781 Br  0  0  0  0  0  0  0  0  0  0  0  0
   -3.1469    3.1615    0.0723 S   0  0  0  0  0  0  0  0  0  0  0  0
    0.9062   -1.4775   -0.3179 O   0  5  0  0  0  0  0  0  0  0  0  0
    0.1601    1.1518    0.0081 N   0  0  0  0  0  2  0  0  0  0  0  0
   -0.6662    2.2051    0.2361 N   0  0  0  0  0  0  0  0  0  0  0  0
   -2.2553    0.7235   -0.6791 N   0  0  0  0  0  2  0  0  0  0  0  0
   -1.9063    1.9156   -0.1457 C   0  0  0  0  0  0  0  0  0  0  0  0
    2.4616    0.3193    0.1195 C   0  0  0  0  0  0  0  0  0  0  0  0
    2.1606   -1.0493   -0.1741 C   0  0  0  0  0  0  0  0  0  0  0  0
    1.4398    1.3281    0.2577 C   0  0  0  0  0  3  0  0  0  0  0  0
    1.7415    2.3401    0.5881 H   0  0  0  0  0  0  0  0  0  0  0  0
    3.8155    0.6962    0.3183 C   0  0  0  0  0  0  0  0  0  0  0  0
    4.0517    1.7452    0.5490 H   0  0  0  0  0  0  0  0  0  0  0  0
   -2.1499    4.5148    0.7610 C   0  0  0  0  0  0  0  0  0  0  0  0
   -1.6838    4.2078    1.7146 H   0  0  0  0  0  0  0  0  0  0  0  0
   -2.8624    5.3449    0.9279 H   0  0  0  0  0  0  0  0  0  0  0  0
   -1.3625    4.8190    0.0480 H   0  0  0  0  0  0  0  0  0  0  0  0
    4.8382   -0.2465    0.2149 C   0  0  0  0  0  0  0  0  0  0  0  0
    4.5435   -1.5920   -0.0829 C   0  0  0  0  0  0  0  0  0  0  0  0
    5.3557   -2.3281   -0.1638 H   0  0  0  0  0  0  0  0  0  0  0  0
   -3.6627    0.4099   -0.9481 C   0  0  0  0  0  0  0  0  0  0  0  0
   -3.7042   -0.2816   -1.8121 H   0  0  0  0  0  0  0  0  0  0  0  0
   -4.1867    1.3392   -1.2701 H   0  0  0  0  0  0  0  0  0  0  0  0
    3.2152   -1.9825   -0.2731 C   0  0  0  0  0  0  0  0  0  0  0  0
    2.9600   -3.0268   -0.5027 H   0  0  0  0  0  0  0  0  0  0  0  0
   -4.3674   -0.2189    0.2569 C   0  0  0  0  0  0  0  0  0  0  0  0
   -3.7953   -1.1241    0.5416 H   0  0  0  0  0  0  0  0  0  0  0  0
   -4.3077    0.4827    1.1176 H   0  0  0  0  0  0  0  0  0  0  0  0
   -5.8272   -0.5765   -0.0293 C   0  0  0  0  0  0  0  0  0  0  0  0
   -6.3733    0.3380   -0.3505 H   0  0  0  0  0  0  0  0  0  0  0  0
   -5.8683   -1.2757   -0.8954 H   0  0  0  0  0  0  0  0  0  0  0  0
   -6.5611   -1.2066    1.1634 C   0  0  0  0  0  0  0  0  0  0  0  0
   -7.6315   -1.3366    0.8945 H   0  0  0  0  0  0  0  0  0  0  0  0
   -6.5496   -0.4907    2.0156 H   0  0  0  0  0  0  0  0  0  0  0  0
   -5.9897   -2.5524    1.6177 C   0  0  0  0  0  0  0  0  0  0  0  0
   -5.9817   -3.2867    0.7848 H   0  0  0  0  0  0  0  0  0  0  0  0
   -6.5878   -2.9884    2.4431 H   0  0  0  0  0  0  0  0  0  0  0  0
   -4.9460   -2.4588    1.9823 H   0  0  0  0  0  0  0  0  0  0  0  0
  2 14  1  0  0  0  0
  3  9  1  0  0  0  0
  4  5  1  0  0  0  0
  4 10  1  0  0  0  0
  6  7  1  0  0  0  0
  7  2  1  0  0  0  0
  7  5  2  0  0  0  0
  8 10  1  0  0  0  0
  8 12  1  0  0  0  0
  9  8  2  0  0  0  0
 10 11  1  0  0  0  0
 12 13  1  0  0  0  0
 14 16  1  0  0  0  0
 14 15  1  0  0  0  0
 17 14  1  0  0  0  0
 18 12  2  0  0  0  0
 18  1  1  0  0  0  0
 19 18  1  0  0  0  0
 20 19  1  0  0  0  0
 21  6  1  0  0  0  0
 21 26  1  0  0  0  0
 22 21  1  0  0  0  0
 23 21  1  0  0  0  0
 24  9  1  0  0  0  0
 24 19  2  0  0  0  0
 25 24  1  0  0  0  0
 26 27  1  0  0  0  0
 26 28  1  0  0  0  0
 29 26  1  0  0  0  0
 29 32  1  0  0  0  0
 30 29  1  0  0  0  0
 31 29  1  0  0  0  0
 32 35  1  0  0  0  0
 32 34  1  0  0  0  0
 33 32  1  0  0  0  0
 35 38  1  0  0  0  0
 35 37  1  0  0  0  0
 36 35  1  0  0  0  0
M  CHG  1   3  -1
M  END
