2,5,7
 OpenBabel05122313063D

 21 22  0  0  0  0  0  0  0  0999 V2000
    3.3781    2.1378    0.0000 S   0  0  0  0  0  0  0  0  0  0  0  0
   -1.3770   -1.6778   -0.0000 O   0  5  0  0  0  0  0  0  0  0  0  0
   -5.5976    0.5920   -0.0000 O   0  0  0  0  0  0  0  0  0  0  0  0
   -5.9444   -0.3216   -0.0000 H   0  0  0  0  0  0  0  0  0  0  0  0
   -0.1172    0.5664   -0.0000 N   0  0  0  0  0  2  0  0  0  0  0  0
    0.6915    1.5856   -0.0000 N   0  0  0  0  0  0  0  0  0  0  0  0
    2.2720   -0.1958   -0.0000 N   0  0  0  0  0  2  0  0  0  0  0  0
   -2.1118   -0.6172   -0.0000 C   0  0  0  0  0  0  0  0  0  0  0  0
   -3.5318   -0.6487   -0.0000 C   0  0  0  0  0  0  0  0  0  0  0  0
   -4.0369   -1.6263   -0.0000 H   0  0  0  0  0  0  0  0  0  0  0  0
   -4.2494    0.5497   -0.0000 C   0  0  0  0  0  0  0  0  0  0  0  0
   -3.5943    1.8319   -0.0000 C   0  0  0  0  0  0  0  0  0  0  0  0
   -4.2245    2.7319   -0.0000 H   0  0  0  0  0  0  0  0  0  0  0  0
   -2.2181    1.8995   -0.0000 C   0  0  0  0  0  0  0  0  0  0  0  0
   -1.6811    2.8584   -0.0000 H   0  0  0  0  0  0  0  0  0  0  0  0
   -1.4623    0.6915   -0.0000 C   0  0  0  0  0  0  0  0  0  0  0  0
    1.9713    1.1115   -0.0000 C   0  0  0  0  0  0  0  0  0  0  0  0
    3.6200   -0.4233   -0.0000 C   0  0  0  0  0  0  0  0  0  0  0  0
    3.9917   -1.4560   -0.0000 H   0  0  0  0  0  0  0  0  0  0  0  0
    4.3890    0.7218   -0.0000 C   0  0  0  0  0  0  0  0  0  0  0  0
    5.4812    0.8090   -0.0001 H   0  0  0  0  0  0  0  0  0  0  0  0
  2  8  1  0  0  0  0
  4  3  1  0  0  0  0
  5  6  1  0  0  0  0
  5 16  1  0  0  0  0
  9  8  1  0  0  0  0
  9 11  2  0  0  0  0
 10  9  1  0  0  0  0
 11 12  1  0  0  0  0
 11  3  1  0  0  0  0
 12 13  1  0  0  0  0
 14 12  2  0  0  0  0
 14 15  1  0  0  0  0
 16 14  1  0  0  0  0
 16  8  2  0  0  0  0
 17  6  2  0  0  0  0
 17  7  1  0  0  0  0
 17  1  1  0  0  0  0
 18  7  1  0  0  0  0
 19 18  1  0  0  0  0
 20 18  2  0  0  0  0
 20  1  1  0  0  0  0
 21 20  1  0  0  0  0
M  CHG  1   2  -1
M  END
