1,2,3
 OpenBabel05122313063D

 33 34  0  0  0  0  0  0  0  0999 V2000
    1.1990    0.8962    0.2284 O   0  5  0  0  0  0  0  0  0  0  0  0
   -1.9759   -1.2195    0.0096 N   0  0  0  0  0  0  0  0  0  0  0  0
    0.5947   -1.7386   -0.0530 N   0  0  0  0  0  2  0  0  0  0  0  0
    1.8970   -1.8898   -0.1701 C   0  0  0  0  0  0  0  0  0  0  0  0
    2.2895   -2.9245   -0.2358 H   0  0  0  0  0  0  0  0  0  0  0  0
   -2.3676   -1.3670   -1.4245 C   0  0  0  0  0  0  0  0  0  0  0  0
   -3.0235   -2.2664   -1.5180 H   0  0  0  0  0  0  0  0  0  0  0  0
   -1.4749   -1.5131   -2.0610 H   0  0  0  0  0  0  0  0  0  0  0  0
    2.4310    0.5369    0.0109 C   0  0  0  0  0  0  0  0  0  0  0  0
    2.8505   -0.8298   -0.2023 C   0  0  0  0  0  0  0  0  0  0  0  0
   -0.2576   -2.9290    0.0191 C   0  0  0  0  0  0  0  0  0  0  0  0
    0.2197   -3.7377    0.6121 H   0  0  0  0  0  0  0  0  0  0  0  0
   -0.4390   -3.3323   -1.0024 H   0  0  0  0  0  0  0  0  0  0  0  0
   -1.5588   -2.4813    0.6604 C   0  0  0  0  0  0  0  0  0  0  0  0
   -2.3574   -3.2536    0.5692 H   0  0  0  0  0  0  0  0  0  0  0  0
   -1.3991   -2.2430    1.7312 H   0  0  0  0  0  0  0  0  0  0  0  0
    3.4453    1.5453    0.0060 C   0  0  0  0  0  0  0  0  0  0  0  0
    3.1192    2.5833    0.1641 H   0  0  0  0  0  0  0  0  0  0  0  0
    4.2310   -1.1243   -0.3988 C   0  0  0  0  0  3  0  0  0  0  0  0
    4.5246   -2.1755   -0.5527 H   0  0  0  0  0  0  0  0  0  0  0  0
    4.7804    1.2221   -0.1990 C   0  0  0  0  0  0  0  0  0  0  0  0
    5.5335    2.0258   -0.2036 H   0  0  0  0  0  0  0  0  0  0  0  0
   -3.1891   -0.6360    0.6635 C   0  0  0  0  0  0  0  0  0  0  0  0
   -2.8757   -0.0966    1.5733 H   0  0  0  0  0  0  0  0  0  0  0  0
   -3.8420   -1.4850    0.9663 H   0  0  0  0  0  0  0  0  0  0  0  0
   -3.8772    0.2322   -0.4068 C   0  0  0  0  0  0  0  0  0  0  0  0
   -3.8044    1.3057   -0.1558 H   0  0  0  0  0  0  0  0  0  0  0  0
   -4.9530   -0.0253   -0.4714 H   0  0  0  0  0  0  0  0  0  0  0  0
    5.1896   -0.1213   -0.4040 C   0  0  0  0  0  0  0  0  0  0  0  0
    6.2505   -0.3613   -0.5640 H   0  0  0  0  0  0  0  0  0  0  0  0
   -3.1316   -0.0813   -1.7274 C   0  0  0  0  0  0  0  0  0  0  0  0
   -3.8119   -0.2092   -2.5911 H   0  0  0  0  0  0  0  0  0  0  0  0
   -2.4102    0.7260   -1.9654 H   0  0  0  0  0  0  0  0  0  0  0  0
  2 14  1  0  0  0  0
  2 23  1  0  0  0  0
  3 11  1  0  0  0  0
  4  3  1  0  0  0  0
  5  4  1  0  0  0  0
  6  2  1  0  0  0  0
  7  6  1  0  0  0  0
  8  6  1  0  0  0  0
  9  1  1  0  0  0  0
 10  4  2  0  0  0  0
 10  9  1  0  0  0  0
 11 12  1  0  0  0  0
 11 14  1  0  0  0  0
 13 11  1  0  0  0  0
 14 16  1  0  0  0  0
 15 14  1  0  0  0  0
 17  9  2  0  0  0  0
 17 18  1  0  0  0  0
 19 10  1  0  0  0  0
 20 19  1  0  0  0  0
 21 17  1  0  0  0  0
 22 21  1  0  0  0  0
 23 25  1  0  0  0  0
 23 24  1  0  0  0  0
 26 27  1  0  0  0  0
 26 23  1  0  0  0  0
 28 26  1  0  0  0  0
 29 19  1  0  0  0  0
 29 21  2  0  0  0  0
 30 29  1  0  0  0  0
 31  6  1  0  0  0  0
 31 26  1  0  0  0  0
 32 31  1  0  0  0  0
 33 31  1  0  0  0  0
M  CHG  1   1  -1
M  END
