1,4,5
 OpenBabel05122313063D

 39 41  0  0  0  0  0  0  0  0999 V2000
    0.7229   -1.3437   -0.5251 O   0  5  0  0  0  0  0  0  0  0  0  0
    7.6385   -1.0154   -0.3040 O   0  0  0  0  0  0  0  0  0  0  0  0
    7.5387    1.1156    0.1714 O   0  0  0  0  0  0  0  0  0  0  0  0
   -3.2089    0.0533   -0.4008 N   0  0  0  0  0  2  0  0  0  0  0  0
   -0.6944    0.7989   -0.2908 N   0  0  0  0  0  2  0  0  0  0  0  0
    0.6198    0.9732   -0.1932 N   0  0  0  0  0  0  0  0  0  0  0  0
    7.0219    0.0294   -0.0920 N   0  0  0  0  0  0  0  0  0  0  0  0
   -2.9737    1.3847   -0.2694 C   0  0  0  0  0  0  0  0  0  0  0  0
   -4.0450    2.3031   -0.3497 C   0  0  0  0  0  0  0  0  0  0  0  0
   -3.8492    3.3814   -0.2815 H   0  0  0  0  0  0  0  0  0  0  0  0
   -5.3442    1.8183   -0.5437 C   0  0  0  0  0  0  0  0  0  0  0  0
   -6.1870    2.5230   -0.6098 H   0  0  0  0  0  0  0  0  0  0  0  0
   -5.5604    0.4372   -0.6730 C   0  0  0  0  0  0  0  0  0  0  0  0
   -6.5656    0.0236   -0.8359 H   0  0  0  0  0  0  0  0  0  0  0  0
   -4.4453   -0.4113   -0.6093 C   0  0  0  0  0  0  0  0  0  0  0  0
   -4.5167   -1.5032   -0.7532 H   0  0  0  0  0  0  0  0  0  0  0  0
   -1.5572    1.7825   -0.1058 C   0  0  0  0  0  0  0  0  0  0  0  0
    1.2728   -0.2162   -0.3440 C   0  0  0  0  0  0  0  0  0  0  0  0
    2.7609   -0.1282   -0.2778 C   0  0  0  0  0  0  0  0  0  0  0  0
    3.5252   -1.2901   -0.5198 C   0  0  0  0  0  0  0  0  0  0  0  0
    2.9927   -2.2219   -0.7582 H   0  0  0  0  0  0  0  0  0  0  0  0
    4.9207   -1.2452   -0.4631 C   0  0  0  0  0  0  0  0  0  0  0  0
    5.5471   -2.1276   -0.6488 H   0  0  0  0  0  0  0  0  0  0  0  0
    5.5408   -0.0250   -0.1586 C   0  0  0  0  0  0  0  0  0  0  0  0
    4.8068    1.1450    0.0861 C   0  0  0  0  0  0  0  0  0  0  0  0
    5.3474    2.0713    0.3209 H   0  0  0  0  0  0  0  0  0  0  0  0
    3.4118    1.0888    0.0242 C   0  0  0  0  0  0  0  0  0  0  0  0
    2.7952    1.9785    0.2130 H   0  0  0  0  0  0  0  0  0  0  0  0
   -1.1680    3.1714    0.2294 C   0  0  0  0  0  0  0  0  0  0  0  0
   -1.7976    3.8559    1.2945 C   0  0  0  0  0  0  0  0  0  0  0  0
   -2.5766    3.3461    1.8815 H   0  0  0  0  0  0  0  0  0  0  0  0
   -1.4174    5.1630    1.6295 C   0  0  0  0  0  0  0  0  0  0  0  0
   -1.9110    5.6771    2.4683 H   0  0  0  0  0  0  0  0  0  0  0  0
   -0.4059    5.8098    0.9027 C   0  0  0  0  0  0  0  0  0  0  0  0
   -0.1085    6.8370    1.1631 H   0  0  0  0  0  0  0  0  0  0  0  0
    0.2289    5.1379   -0.1553 C   0  0  0  0  0  0  0  0  0  0  0  0
    1.0236    5.6399   -0.7280 H   0  0  0  0  0  0  0  0  0  0  0  0
   -0.1403    3.8282   -0.4864 C   0  0  0  0  0  0  0  0  0  0  0  0
    0.3649    3.2987   -1.3047 H   0  0  0  0  0  0  0  0  0  0  0  0
  1 18  1  0  0  0  0
  2  7  2  0  0  0  0
  4  8  1  0  0  0  0
  5  6  1  0  0  0  0
  5 17  1  0  0  0  0
  7  3  2  0  0  0  0
  8 17  2  0  0  0  0
  9 10  1  0  0  0  0
  9  8  1  0  0  0  0
 11  9  2  0  0  0  0
 12 11  1  0  0  0  0
 13 15  2  0  0  0  0
 13 11  1  0  0  0  0
 14 13  1  0  0  0  0
 15  4  1  0  0  0  0
 16 15  1  0  0  0  0
 17 29  1  0  0  0  0
 18 19  1  0  0  0  0
 18  6  2  0  0  0  0
 19 27  1  0  0  0  0
 20 22  1  0  0  0  0
 20 19  2  0  0  0  0
 21 20  1  0  0  0  0
 22 24  2  0  0  0  0
 23 22  1  0  0  0  0
 24  7  1  0  0  0  0
 24 25  1  0  0  0  0
 25 26  1  0  0  0  0
 27 25  2  0  0  0  0
 27 28  1  0  0  0  0
 29 30  1  0  0  0  0
 30 32  2  0  0  0  0
 30 31  1  0  0  0  0
 32 33  1  0  0  0  0
 34 35  1  0  0  0  0
 34 32  1  0  0  0  0
 36 34  2  0  0  0  0
 37 36  1  0  0  0  0
 38 36  1  0  0  0  0
 38 29  2  0  0  0  0
 39 38  1  0  0  0  0
M  CHG  1   1  -1
M  END
