1,4,5
 OpenBabel05122313063D

 33 35  0  0  0  0  0  0  0  0999 V2000
   -0.7492    0.7417    1.1106 O   0  5  0  0  0  0  0  0  0  0  0  0
   -5.5925    4.8682    1.0796 O   0  0  0  0  0  0  0  0  0  0  0  0
   -5.9894    3.7572   -0.8562 O   0  0  0  0  0  0  0  0  0  0  0  0
    0.8006   -1.9492   -1.1273 N   0  0  0  0  0  2  0  0  0  0  0  0
   -1.4285   -0.6066   -1.2868 N   0  0  0  0  0  2  0  0  0  0  0  0
    1.9736   -2.5641   -0.9742 C   0  0  0  0  0  0  0  0  0  0  0  0
    2.5714   -2.2808   -0.0969 H   0  0  0  0  0  0  0  0  0  0  0  0
    2.4367   -3.5343   -1.8951 C   0  0  0  0  0  0  0  0  0  0  0  0
    3.4130   -4.0083   -1.7236 H   0  0  0  0  0  0  0  0  0  0  0  0
    1.6548   -3.8669   -2.9917 C   0  0  0  0  0  0  0  0  0  0  0  0
    1.9938   -4.6197   -3.7194 H   0  0  0  0  0  0  0  0  0  0  0  0
    0.3989   -3.2241   -3.1814 C   0  0  0  0  0  0  0  0  0  0  0  0
   -0.4855   -3.4831   -4.2665 C   0  0  0  0  0  3  0  0  0  0  0  0
   -0.2047   -4.2292   -5.0238 H   0  0  0  0  0  0  0  0  0  0  0  0
   -1.6901   -2.7949   -4.3558 C   0  0  0  0  0  0  0  0  0  0  0  0
   -2.3741   -2.9997   -5.1924 H   0  0  0  0  0  0  0  0  0  0  0  0
   -2.0664   -1.8269   -3.3919 C   0  0  0  0  0  0  0  0  0  0  0  0
   -3.0304   -1.3117   -3.5047 H   0  0  0  0  0  0  0  0  0  0  0  0
   -1.2203   -1.5371   -2.3170 C   0  0  0  0  0  0  0  0  0  0  0  0
    0.0110   -2.2505   -2.2070 C   0  0  0  0  0  0  0  0  0  0  0  0
   -2.4034    0.2822   -1.3027 C   0  0  0  0  0  3  0  0  0  0  0  0
   -3.1023    0.2677   -2.1600 H   0  0  0  0  0  0  0  0  0  0  0  0
   -2.6543    1.2700   -0.3153 C   0  0  0  0  0  0  0  0  0  0  0  0
   -3.7866    2.1191   -0.4951 C   0  0  0  0  0  0  0  0  0  0  0  0
   -4.4171    1.9904   -1.3874 H   0  0  0  0  0  0  0  0  0  0  0  0
   -4.1107    3.1000    0.4322 C   0  0  0  0  0  0  0  0  0  0  0  0
   -3.2858    3.2579    1.5857 C   0  0  0  0  0  0  0  0  0  0  0  0
   -3.5609    4.0433    2.3060 H   0  0  0  0  0  0  0  0  0  0  0  0
   -2.1769    2.4591    1.7921 C   0  0  0  0  0  0  0  0  0  0  0  0
   -1.5349    2.5827    2.6754 H   0  0  0  0  0  0  0  0  0  0  0  0
   -1.8100    1.4415    0.8535 C   0  0  0  0  0  0  0  0  0  0  0  0
   -5.2858    4.0021    0.2794 C   0  0  0  0  0  0  0  0  0  0  0  0
   -6.7281    4.4035   -0.8540 H   0  0  0  0  0  0  0  0  0  0  0  0
  3 33  1  0  0  0  0
  3 32  1  0  0  0  0
  4  6  1  0  0  0  0
  6  7  1  0  0  0  0
  8  9  1  0  0  0  0
  8  6  2  0  0  0  0
 10  8  1  0  0  0  0
 11 10  1  0  0  0  0
 12 10  2  0  0  0  0
 12 20  1  0  0  0  0
 13 12  1  0  0  0  0
 14 13  1  0  0  0  0
 15 13  1  0  0  0  0
 15 17  2  0  0  0  0
 16 15  1  0  0  0  0
 17 19  1  0  0  0  0
 18 17  1  0  0  0  0
 19 20  2  0  0  0  0
 19  5  1  0  0  0  0
 20  4  1  0  0  0  0
 21  5  1  0  0  0  0
 21 23  1  0  0  0  0
 22 21  1  0  0  0  0
 23 31  1  0  0  0  0
 24 23  2  0  0  0  0
 24 26  1  0  0  0  0
 25 24  1  0  0  0  0
 26 27  2  0  0  0  0
 27 29  1  0  0  0  0
 27 28  1  0  0  0  0
 29 30  1  0  0  0  0
 31  1  1  0  0  0  0
 31 29  2  0  0  0  0
 32 26  1  0  0  0  0
 32  2  2  0  0  0  0
M  CHG  1   1  -1
M  END
