1,2,3
 OpenBabel05122313063D

 62 65  0  0  0  0  0  0  0  0999 V2000
   -1.9166   -0.0917   -0.1814 O   0  5  0  0  0  0  0  0  0  0  0  0
   -0.2038    2.2213    0.1303 N   0  0  0  0  0  2  0  0  0  0  0  0
    1.9486    0.7163    0.2583 N   0  0  0  0  0  2  0  0  0  0  0  0
   -2.8659    0.7800    0.0158 C   0  0  0  0  0  0  0  0  0  0  0  0
   -2.6849    2.2130    0.1714 C   0  0  0  0  0  0  0  0  0  0  0  0
   -3.8398    3.0097    0.4332 C   0  0  0  0  0  0  0  0  0  0  0  0
   -3.7202    4.0811    0.6424 H   0  0  0  0  0  0  0  0  0  0  0  0
   -5.1152    2.4710    0.4939 C   0  0  0  0  0  0  0  0  0  0  0  0
   -5.9770    3.1126    0.7268 H   0  0  0  0  0  0  0  0  0  0  0  0
   -5.2922    1.0887    0.2813 C   0  0  0  0  0  0  0  0  0  0  0  0
   -6.3015    0.6538    0.3414 H   0  0  0  0  0  0  0  0  0  0  0  0
   -4.2123    0.2361    0.0431 C   0  0  0  0  0  0  0  0  0  0  0  0
   -4.4544   -1.2129   -0.1913 C   0  0  0  0  0  0  0  0  0  0  0  0
   -5.5663   -1.6114   -0.9701 C   0  0  0  0  0  0  0  0  0  0  0  0
   -6.1961   -0.8407   -1.4404 H   0  0  0  0  0  0  0  0  0  0  0  0
   -5.8592   -2.9657   -1.1810 C   0  0  0  0  0  0  0  0  0  0  0  0
   -6.7247   -3.2462   -1.8009 H   0  0  0  0  0  0  0  0  0  0  0  0
   -5.0433   -3.9581   -0.6167 C   0  0  0  0  0  0  0  0  0  0  0  0
   -5.2667   -5.0228   -0.7846 H   0  0  0  0  0  0  0  0  0  0  0  0
   -3.9333   -3.5789    0.1550 C   0  0  0  0  0  0  0  0  0  0  0  0
   -3.2828   -4.3475    0.6002 H   0  0  0  0  0  0  0  0  0  0  0  0
   -3.6358   -2.2258    0.3634 C   0  0  0  0  0  0  0  0  0  0  0  0
   -2.7567   -1.9493    0.9579 H   0  0  0  0  0  0  0  0  0  0  0  0
   -1.3908    2.8954    0.0663 C   0  0  0  0  0  0  0  0  0  0  0  0
   -1.3174    4.3116   -0.1083 C   0  0  0  0  0  0  0  0  0  0  0  0
   -2.2459    4.8772   -0.2459 H   0  0  0  0  0  0  0  0  0  0  0  0
   -0.1019    4.9884   -0.1380 C   0  0  0  0  0  0  0  0  0  0  0  0
   -0.0839    6.0792   -0.2764 H   0  0  0  0  0  0  0  0  0  0  0  0
    1.0958    4.2658   -0.0051 C   0  0  0  0  0  0  0  0  0  0  0  0
    2.0791    4.7557   -0.0173 H   0  0  0  0  0  0  0  0  0  0  0  0
    1.0069    2.8765    0.1102 C   0  0  0  0  0  0  0  0  0  0  0  0
    2.1635    2.0075    0.2145 C   0  0  0  0  0  0  0  0  0  0  0  0
    3.1852    2.4207    0.2678 H   0  0  0  0  0  0  0  0  0  0  0  0
    3.0127   -0.2295    0.3080 C   0  0  0  0  0  0  0  0  0  0  0  0
    3.9009   -0.3545   -0.7955 C   0  0  0  0  0  0  0  0  0  0  0  0
    4.9102   -1.3309   -0.6996 C   0  0  0  0  0  0  0  0  0  0  0  0
    5.6111   -1.4544   -1.5384 H   0  0  0  0  0  0  0  0  0  0  0  0
    5.0251   -2.1574    0.4234 C   0  0  0  0  0  0  0  0  0  0  0  0
    5.8244   -2.9127    0.4702 H   0  0  0  0  0  0  0  0  0  0  0  0
    4.1158   -2.0334    1.4823 C   0  0  0  0  0  0  0  0  0  0  0  0
    4.2062   -2.6916    2.3586 H   0  0  0  0  0  0  0  0  0  0  0  0
    3.0864   -1.0786    1.4461 C   0  0  0  0  0  0  0  0  0  0  0  0
    3.7835    0.4869   -2.0615 C   0  0  0  0  0  0  0  0  0  0  0  0
    2.8056    1.0076   -2.0326 H   0  0  0  0  0  0  0  0  0  0  0  0
    4.8964    1.5494   -2.1240 C   0  0  0  0  0  0  0  0  0  0  0  0
    4.8931    2.2172   -1.2376 H   0  0  0  0  0  0  0  0  0  0  0  0
    4.7852    2.1804   -3.0296 H   0  0  0  0  0  0  0  0  0  0  0  0
    5.8978    1.0728   -2.1669 H   0  0  0  0  0  0  0  0  0  0  0  0
    3.7693   -0.3830   -3.3298 C   0  0  0  0  0  0  0  0  0  0  0  0
    4.7368   -0.9040   -3.4846 H   0  0  0  0  0  0  0  0  0  0  0  0
    3.5933    0.2529   -4.2214 H   0  0  0  0  0  0  0  0  0  0  0  0
    2.9548   -1.1297   -3.2630 H   0  0  0  0  0  0  0  0  0  0  0  0
    2.1429   -0.8983    2.6262 C   0  0  0  0  0  0  0  0  0  0  0  0
    1.2396   -0.3765    2.2432 H   0  0  0  0  0  0  0  0  0  0  0  0
    1.6641   -2.2272    3.2212 C   0  0  0  0  0  0  0  0  0  0  0  0
    1.1968   -2.8503    2.4343 H   0  0  0  0  0  0  0  0  0  0  0  0
    0.9057   -2.0396    4.0080 H   0  0  0  0  0  0  0  0  0  0  0  0
    2.4885   -2.8008    3.6937 H   0  0  0  0  0  0  0  0  0  0  0  0
    2.7870    0.0135    3.6866 C   0  0  0  0  0  0  0  0  0  0  0  0
    3.7053   -0.4493    4.1048 H   0  0  0  0  0  0  0  0  0  0  0  0
    2.0844    0.1984    4.5251 H   0  0  0  0  0  0  0  0  0  0  0  0
    3.0746    0.9958    3.2586 H   0  0  0  0  0  0  0  0  0  0  0  0
  1  4  1  0  0  0  0
  3 34  1  0  0  0  0
  4 12  2  0  0  0  0
  4  5  1  0  0  0  0
  5  6  2  0  0  0  0
  6  8  1  0  0  0  0
  6  7  1  0  0  0  0
  8  9  1  0  0  0  0
 10 11  1  0  0  0  0
 10  8  2  0  0  0  0
 12 10  1  0  0  0  0
 13 12  1  0  0  0  0
 13 22  1  0  0  0  0
 14 13  2  0  0  0  0
 15 14  1  0  0  0  0
 16 14  1  0  0  0  0
 16 18  2  0  0  0  0
 17 16  1  0  0  0  0
 18 20  1  0  0  0  0
 19 18  1  0  0  0  0
 20 22  2  0  0  0  0
 20 21  1  0  0  0  0
 22 23  1  0  0  0  0
 24  2  1  0  0  0  0
 24  5  1  0  0  0  0
 25 24  2  0  0  0  0
 26 25  1  0  0  0  0
 27 25  1  0  0  0  0
 27 29  2  0  0  0  0
 28 27  1  0  0  0  0
 29 31  1  0  0  0  0
 30 29  1  0  0  0  0
 31  2  1  0  0  0  0
 31 32  2  0  0  0  0
 32  3  1  0  0  0  0
 32 33  1  0  0  0  0
 34 42  1  0  0  0  0
 35 36  1  0  0  0  0
 35 34  2  0  0  0  0
 36 38  2  0  0  0  0
 37 36  1  0  0  0  0
 38 39  1  0  0  0  0
 38 40  1  0  0  0  0
 40 41  1  0  0  0  0
 42 40  2  0  0  0  0
 42 53  1  0  0  0  0
 43 44  1  0  0  0  0
 43 35  1  0  0  0  0
 45 43  1  0  0  0  0
 45 46  1  0  0  0  0
 47 45  1  0  0  0  0
 48 45  1  0  0  0  0
 49 52  1  0  0  0  0
 49 43  1  0  0  0  0
 50 49  1  0  0  0  0
 51 49  1  0  0  0  0
 53 55  1  0  0  0  0
 53 59  1  0  0  0  0
 54 53  1  0  0  0  0
 55 58  1  0  0  0  0
 55 57  1  0  0  0  0
 56 55  1  0  0  0  0
 59 60  1  0  0  0  0
 59 61  1  0  0  0  0
 62 59  1  0  0  0  0
M  CHG  1   1  -1
M  END
