1,2,3
 OpenBabel05122313063D

 43 46  0  0  1  0  0  0  0  0999 V2000
   -0.4140   -1.9541   -0.4923 O   0  5  0  0  0  0  0  0  0  0  0  0
   -0.8115    0.8530   -0.5874 N   0  0  0  0  0  2  0  0  0  0  0  0
    1.6570    1.2603   -1.4684 N   0  0  0  0  0  2  0  0  0  0  0  0
    2.9031    1.2998   -1.9793 C   0  0  0  0  0  3  0  0  0  0  0  0
    3.4664    0.3568   -1.9071 H   0  0  0  0  0  0  0  0  0  0  0  0
    3.4264    2.4563   -2.5638 C   0  0  0  0  0  0  0  0  0  0  0  0
    4.4459    2.4550   -2.9747 H   0  0  0  0  0  0  0  0  0  0  0  0
    1.3318    3.5584   -2.0677 C   0  0  0  0  0  0  0  0  0  0  0  0
    0.6772    4.4424   -2.0679 H   0  0  0  0  0  0  0  0  0  0  0  0
    0.8763    2.3550   -1.5013 C   0  0  0  0  0  0  0  0  0  0  0  0
   -0.5102    2.2487   -0.8648 C   0  0  2  0  0  0  0  0  0  0  0  0
   -1.2398    2.6736   -1.5927 H   0  0  0  0  0  0  0  0  0  0  0  0
    2.6209    3.6070   -2.6080 C   0  0  0  0  0  0  0  0  0  0  0  0
    2.9989    4.5368   -3.0593 H   0  0  0  0  0  0  0  0  0  0  0  0
   -0.5720    3.1109    0.3976 C   0  0  0  0  0  0  0  0  0  0  0  0
    0.2037    2.7730    1.5257 C   0  0  0  0  0  0  0  0  0  0  0  0
    0.8512    1.8810    1.5093 H   0  0  0  0  0  0  0  0  0  0  0  0
    0.1360    3.5624    2.6814 C   0  0  0  0  0  0  0  0  0  0  0  0
    0.7405    3.2875    3.5591 H   0  0  0  0  0  0  0  0  0  0  0  0
   -0.6966    4.6941    2.7236 C   0  0  0  0  0  0  0  0  0  0  0  0
   -0.7459    5.3101    3.6344 H   0  0  0  0  0  0  0  0  0  0  0  0
   -1.4691    5.0328    1.6030 C   0  0  0  0  0  0  0  0  0  0  0  0
   -2.1285    5.9137    1.6301 H   0  0  0  0  0  0  0  0  0  0  0  0
   -1.4067    4.2418    0.4439 C   0  0  0  0  0  0  0  0  0  0  0  0
   -2.0192    4.5031   -0.4343 H   0  0  0  0  0  0  0  0  0  0  0  0
   -2.0681    0.4809   -0.5332 C   0  0  0  0  0  3  0  0  0  0  0  0
   -2.8309    1.2712   -0.6933 H   0  0  0  0  0  0  0  0  0  0  0  0
   -2.5720   -0.8425   -0.3344 C   0  0  0  0  0  0  0  0  0  0  0  0
   -1.6984   -1.9971   -0.3979 C   0  0  0  0  0  0  0  0  0  0  0  0
   -2.3170   -3.3066   -0.3976 C   0  0  0  0  0  0  0  0  0  0  0  0
   -1.6342   -4.1649   -0.4834 H   0  0  0  0  0  0  0  0  0  0  0  0
   -3.6733   -3.4741   -0.2906 C   0  0  0  0  0  0  0  0  0  0  0  0
   -4.1074   -4.4873   -0.2893 H   0  0  0  0  0  0  0  0  0  0  0  0
   -4.0109   -1.0271   -0.1675 C   0  0  0  0  0  0  0  0  0  0  0  0
   -4.5624   -2.3560   -0.1618 C   0  0  0  0  0  0  0  0  0  0  0  0
   -5.9609   -2.5525   -0.0159 C   0  0  0  0  0  0  0  0  0  0  0  0
   -6.3461   -3.5846   -0.0196 H   0  0  0  0  0  0  0  0  0  0  0  0
   -6.8278   -1.4765    0.1358 C   0  0  0  0  0  0  0  0  0  0  0  0
   -7.9096   -1.6397    0.2501 H   0  0  0  0  0  0  0  0  0  0  0  0
   -4.9261    0.0485    0.0196 C   0  0  0  0  0  0  0  0  0  0  0  0
   -4.5580    1.0820    0.0849 H   0  0  0  0  0  0  0  0  0  0  0  0
   -6.2950   -0.1678    0.1599 C   0  0  0  0  0  0  0  0  0  0  0  0
   -6.9646    0.6939    0.3046 H   0  0  0  0  0  0  0  0  0  0  0  0
  1 29  1  0  0  0  0
  2 26  1  0  0  0  0
  4  5  1  0  0  0  0
  4  3  1  0  0  0  0
  6  4  1  0  0  0  0
  7  6  1  0  0  0  0
  8 10  2  0  0  0  0
  9  8  1  0  0  0  0
 10  3  1  0  0  0  0
 10 11  1  0  0  0  0
 11 12  1  6  0  0  0
 11  2  1  0  0  0  0
 11 15  1  0  0  0  0
 13  6  2  0  0  0  0
 13  8  1  0  0  0  0
 14 13  1  0  0  0  0
 15 24  2  0  0  0  0
 15 16  1  0  0  0  0
 16 18  2  0  0  0  0
 17 16  1  0  0  0  0
 18 20  1  0  0  0  0
 18 19  1  0  0  0  0
 20 21  1  0  0  0  0
 22 23  1  0  0  0  0
 22 20  2  0  0  0  0
 24 22  1  0  0  0  0
 25 24  1  0  0  0  0
 26 28  1  0  0  0  0
 27 26  1  0  0  0  0
 28 34  1  0  0  0  0
 29 30  1  0  0  0  0
 29 28  2  0  0  0  0
 30 32  2  0  0  0  0
 31 30  1  0  0  0  0
 32 33  1  0  0  0  0
 32 35  1  0  0  0  0
 34 35  2  0  0  0  0
 34 40  1  0  0  0  0
 35 36  1  0  0  0  0
 36 38  2  0  0  0  0
 37 36  1  0  0  0  0
 38 42  1  0  0  0  0
 38 39  1  0  0  0  0
 40 41  1  0  0  0  0
 40 42  2  0  0  0  0
 42 43  1  0  0  0  0
M  CHG  1   1  -1
M  END
