34,35,37
 OpenBabel05122313063D

 37 39  0  0  0  0  0  0  0  0999 V2000
   -4.8080    6.1723   -1.8467 Cl  0  0  0  0  0  0  0  0  0  0  0  0
   -3.8848   -1.0595    2.7942 C   0  0  0  0  0  0  0  0  0  0  0  0
   -3.3810   -0.0873    2.8775 H   0  0  0  0  0  0  0  0  0  0  0  0
   -5.1117   -1.2770    3.4319 C   0  0  0  0  0  0  0  0  0  0  0  0
   -5.5674   -0.4693    4.0238 H   0  0  0  0  0  0  0  0  0  0  0  0
   -5.7602   -2.5182    3.3201 C   0  0  0  0  0  0  0  0  0  0  0  0
   -6.7260   -2.6828    3.8207 H   0  0  0  0  0  0  0  0  0  0  0  0
   -5.1762   -3.5471    2.5646 C   0  0  0  0  0  0  0  0  0  0  0  0
   -5.6872   -4.5160    2.4617 H   0  0  0  0  0  0  0  0  0  0  0  0
   -3.9434   -3.3406    1.9316 C   0  0  0  0  0  0  0  0  0  0  0  0
   -3.5050   -4.1431    1.3191 H   0  0  0  0  0  0  0  0  0  0  0  0
   -3.2807   -2.0949    2.0435 C   0  0  0  0  0  0  0  0  0  0  0  0
   -1.9898   -1.8760    1.3668 C   0  0  0  0  0  0  0  0  0  0  0  0
   -0.8571   -2.8024    1.4183 C   0  0  0  0  0  0  0  0  0  0  0  0
   -0.7905   -3.9701    2.2039 C   0  0  0  0  0  0  0  0  0  0  0  0
   -1.6451   -4.2358    2.8399 H   0  0  0  0  0  0  0  0  0  0  0  0
    0.3672   -4.7556    2.1785 C   0  0  0  0  0  0  0  0  0  0  0  0
    0.4268   -5.6667    2.7920 H   0  0  0  0  0  0  0  0  0  0  0  0
    1.4509   -4.3653    1.3769 C   0  0  0  0  0  0  0  0  0  0  0  0
    2.3775   -4.9534    1.3309 H   0  0  0  0  0  0  0  0  0  0  0  0
    1.3421   -3.1831    0.6350 C   0  0  0  0  0  0  0  0  0  0  0  0
    2.1692   -2.8140    0.0111 H   0  0  0  0  0  0  0  0  0  0  0  0
   -1.8967    1.1398   -0.3555 C   0  0  0  0  0  0  0  0  0  0  0  0
   -2.6156    2.3679   -0.7163 C   0  0  0  0  0  0  0  0  0  0  0  0
   -1.9716    3.3564   -1.4952 C   0  0  0  0  0  0  0  0  0  0  0  0
   -0.9340    3.1899   -1.8172 H   0  0  0  0  0  0  0  0  0  0  0  0
   -2.6422    4.5293   -1.8448 C   0  0  0  0  0  0  0  0  0  0  0  0
   -2.1507    5.3060   -2.4468 H   0  0  0  0  0  0  0  0  0  0  0  0
   -3.9705    4.7186   -1.4149 C   0  0  0  0  0  0  0  0  0  0  0  0
   -4.6273    3.7436   -0.6385 C   0  0  0  0  0  0  0  0  0  0  0  0
   -5.6634    3.9148   -0.3154 H   0  0  0  0  0  0  0  0  0  0  0  0
   -3.9494    2.5743   -0.2913 C   0  0  0  0  0  0  0  0  0  0  0  0
   -4.4431    1.8008    0.3134 H   0  0  0  0  0  0  0  0  0  0  0  0
    0.2282   -2.4324    0.6566 N   0  0  0  0  0  2  0  0  0  0  0  0
   -1.7044   -0.8002    0.6360 N   0  0  0  0  0  2  0  0  0  0  0  0
   -2.5212    0.2293    0.4244 N   0  0  0  0  0  0  0  0  0  0  0  0
   -0.6866    0.9662   -0.7931 O   0  5  0  0  0  0  0  0  0  0  0  0
  1 29  1  0  0  0  0
  2  3  1  0  0  0  0
  2  4  1  0  0  0  0
  4  5  1  0  0  0  0
  6  4  2  0  0  0  0
  6  7  1  0  0  0  0
  8  6  1  0  0  0  0
  9  8  1  0  0  0  0
 10 12  1  0  0  0  0
 10  8  2  0  0  0  0
 11 10  1  0  0  0  0
 12  2  2  0  0  0  0
 13 14  2  0  0  0  0
 13 12  1  0  0  0  0
 14 15  1  0  0  0  0
 15 16  1  0  0  0  0
 17 15  2  0  0  0  0
 17 18  1  0  0  0  0
 19 17  1  0  0  0  0
 20 19  1  0  0  0  0
 21 34  1  0  0  0  0
 21 19  2  0  0  0  0
 22 21  1  0  0  0  0
 23 36  2  0  0  0  0
 24 23  1  0  0  0  0
 24 32  1  0  0  0  0
 25 24  2  0  0  0  0
 26 25  1  0  0  0  0
 27 25  1  0  0  0  0
 27 29  2  0  0  0  0
 28 27  1  0  0  0  0
 29 30  1  0  0  0  0
 30 31  1  0  0  0  0
 30 32  2  0  0  0  0
 32 33  1  0  0  0  0
 34 14  1  0  0  0  0
 35 13  1  0  0  0  0
 36 35  1  0  0  0  0
 37 23  1  0  0  0  0
M  CHG  1  37  -1
M  END
