1,2,3
 OpenBabel05122313063D

 30 31  0  0  0  0  0  0  0  0999 V2000
   -1.1988   -0.2798    1.0690 O   0  5  0  0  0  0  0  0  0  0  0  0
    1.0712    1.3839    0.4823 N   0  0  0  0  0  2  0  0  0  0  0  0
   -0.2452    0.2228   -1.6123 N   0  0  0  0  0  2  0  0  0  0  0  0
    1.1666    4.1450    0.9392 C   0  0  0  0  0  0  0  0  0  0  0  0
    1.2064    5.2310    1.1115 H   0  0  0  0  0  0  0  0  0  0  0  0
    0.7959    3.2675    1.9662 C   0  0  0  0  0  0  0  0  0  0  0  0
    0.5332    3.6302    2.9697 H   0  0  0  0  0  0  0  0  0  0  0  0
    1.4829    3.6132   -0.3167 C   0  0  0  0  0  0  0  0  0  0  0  0
    1.7745    4.2698   -1.1491 H   0  0  0  0  0  0  0  0  0  0  0  0
    1.8175    1.6191   -1.8563 C   0  0  0  0  0  0  0  0  0  0  0  0
    2.6986    0.9696   -1.6831 H   0  0  0  0  0  0  0  0  0  0  0  0
    0.7532    1.8982    1.6925 C   0  0  0  0  0  3  0  0  0  0  0  0
    0.4323    1.1695    2.4507 H   0  0  0  0  0  0  0  0  0  0  0  0
    1.4371    2.2241   -0.5283 C   0  0  0  0  0  0  0  0  0  0  0  0
   -2.3712   -0.0639    0.5468 C   0  0  0  0  0  0  0  0  0  0  0  0
   -2.5885    0.2922   -0.8401 C   0  0  0  0  0  0  0  0  0  0  0  0
   -3.9141    0.5449   -1.3006 C   0  0  0  0  0  0  0  0  0  0  0  0
   -4.0510    0.8322   -2.3562 H   0  0  0  0  0  0  0  0  0  0  0  0
   -4.8035    0.0893    0.8971 C   0  0  0  0  0  0  0  0  0  0  0  0
   -5.6667    0.0031    1.5761 H   0  0  0  0  0  0  0  0  0  0  0  0
   -3.5251   -0.1408    1.3895 C   0  0  0  0  0  0  0  0  0  0  0  0
   -3.3539   -0.4059    2.4430 H   0  0  0  0  0  0  0  0  0  0  0  0
   -5.0141    0.4343   -0.4619 C   0  0  0  0  0  0  0  0  0  0  0  0
   -6.0294    0.6196   -0.8404 H   0  0  0  0  0  0  0  0  0  0  0  0
   -1.5106    0.5356   -1.7547 C   0  0  0  0  0  3  0  0  0  0  0  0
   -1.7895    1.0800   -2.6828 H   0  0  0  0  0  0  0  0  0  0  0  0
    0.7043    0.7899   -2.5630 C   0  0  0  0  0  0  0  0  0  0  0  0
    1.1895   -0.0325   -3.1292 H   0  0  0  0  0  0  0  0  0  0  0  0
    0.1646    1.4345   -3.2914 H   0  0  0  0  0  0  0  0  0  0  0  0
    2.1497    2.4263   -2.5378 H   0  0  0  0  0  0  0  0  0  0  0  0
  2 12  1  0  0  0  0
  4  5  1  0  0  0  0
  4  6  2  0  0  0  0
  6  7  1  0  0  0  0
  8  4  1  0  0  0  0
  9  8  1  0  0  0  0
 10 11  1  0  0  0  0
 10 14  1  0  0  0  0
 12  6  1  0  0  0  0
 12 13  1  0  0  0  0
 14  8  2  0  0  0  0
 14  2  1  0  0  0  0
 15  1  1  0  0  0  0
 15 21  1  0  0  0  0
 16 15  2  0  0  0  0
 17 16  1  0  0  0  0
 17 23  2  0  0  0  0
 18 17  1  0  0  0  0
 19 21  2  0  0  0  0
 19 20  1  0  0  0  0
 21 22  1  0  0  0  0
 23 19  1  0  0  0  0
 24 23  1  0  0  0  0
 25  3  1  0  0  0  0
 25 16  1  0  0  0  0
 26 25  1  0  0  0  0
 27 10  1  0  0  0  0
 27  3  1  0  0  0  0
 28 27  1  0  0  0  0
 29 27  1  0  0  0  0
 30 10  1  0  0  0  0
M  CHG  1   1  -1
M  END
