1,2,5
 OpenBabel05122313063D

 29 31  0  0  1  0  0  0  0  0999 V2000
    1.1971    1.3697   -0.3995 O   0  5  0  0  0  0  0  0  0  0  0  0
    0.1697   -0.3797    1.6159 N   0  0  0  0  0  2  0  0  0  0  0  0
    1.1797   -1.2777    1.5429 N   0  0  0  0  0  0  0  0  0  0  0  0
    0.9913   -1.9074   -0.7542 N   0  0  0  0  0  0  0  0  0  0  0  0
   -0.0300   -1.1106   -1.1539 N   0  0  0  0  0  2  0  0  0  0  0  0
    1.5091   -1.7521    2.7769 C   0  0  0  0  0  3  0  0  0  0  0  0
    2.3255   -2.4707    2.9069 H   0  0  0  0  0  0  0  0  0  0  0  0
    0.6614   -1.1382    3.6945 C   0  0  0  0  0  0  0  0  0  0  0  0
    0.6369   -1.2850    4.7783 H   0  0  0  0  0  0  0  0  0  0  0  0
   -0.1567   -0.2917    2.9234 C   0  0  0  0  0  0  0  0  0  0  0  0
   -0.9623    0.3698    3.2539 H   0  0  0  0  0  0  0  0  0  0  0  0
   -0.5278   -1.6821   -2.2718 C   0  0  0  0  0  3  0  0  0  0  0  0
   -1.3751   -1.2348   -2.7966 H   0  0  0  0  0  0  0  0  0  0  0  0
    0.1864   -2.8519   -2.5924 C   0  0  0  0  0  0  0  0  0  0  0  0
    0.0176   -3.5265   -3.4370 H   0  0  0  0  0  0  0  0  0  0  0  0
    1.1563   -2.9620   -1.6017 C   0  0  0  0  0  0  0  0  0  0  0  0
    1.9589   -3.6911   -1.4460 H   0  0  0  0  0  0  0  0  0  0  0  0
    1.9248   -1.5059    0.3021 C   0  0  1  0  0  0  0  0  0  0  0  0
    2.5265   -2.4113    0.5007 H   0  0  0  0  0  0  0  0  0  0  0  0
    2.8718   -0.4041   -0.0817 C   0  0  0  0  0  0  0  0  0  0  0  0
    2.4418    0.9214   -0.4015 C   0  0  0  0  0  0  0  0  0  0  0  0
    3.4565    1.8597   -0.7530 C   0  0  0  0  0  0  0  0  0  0  0  0
    3.1321    2.8805   -1.0025 H   0  0  0  0  0  0  0  0  0  0  0  0
    4.8049    1.5106   -0.7849 C   0  0  0  0  0  0  0  0  0  0  0  0
    5.5506    2.2711   -1.0625 H   0  0  0  0  0  0  0  0  0  0  0  0
    5.2186    0.2018   -0.4683 C   0  0  0  0  0  0  0  0  0  0  0  0
    6.2809   -0.0776   -0.4927 H   0  0  0  0  0  0  0  0  0  0  0  0
    4.2458   -0.7355   -0.1223 C   0  0  0  0  0  0  0  0  0  0  0  0
    4.5498   -1.7659    0.1285 H   0  0  0  0  0  0  0  0  0  0  0  0
  2 10  1  0  0  0  0
  3  2  1  0  0  0  0
  3  6  1  0  0  0  0
  4 18  1  0  0  0  0
  5  4  1  0  0  0  0
  6  7  1  0  0  0  0
  6  8  1  0  0  0  0
  8  9  1  0  0  0  0
 10 11  1  0  0  0  0
 10  8  2  0  0  0  0
 12  5  1  0  0  0  0
 13 12  1  0  0  0  0
 14 12  1  0  0  0  0
 14 16  2  0  0  0  0
 15 14  1  0  0  0  0
 16 17  1  0  0  0  0
 16  4  1  0  0  0  0
 18 19  1  1  0  0  0
 18  3  1  0  0  0  0
 20 18  1  0  0  0  0
 21  1  1  0  0  0  0
 21 20  2  0  0  0  0
 22 21  1  0  0  0  0
 23 22  1  0  0  0  0
 24 22  2  0  0  0  0
 24 26  1  0  0  0  0
 25 24  1  0  0  0  0
 26 28  2  0  0  0  0
 27 26  1  0  0  0  0
 28 20  1  0  0  0  0
 28 29  1  0  0  0  0
M  CHG  1   1  -1
M  END
