1,2,3
 OpenBabel05122313063D

 74 77  0  0  1  0  0  0  0  0999 V2000
   -0.1982   -2.2950   -0.0265 O   0  5  0  0  0  0  0  0  0  0  0  0
   -3.7080   -0.3625   -0.0116 N   0  0  0  0  0  2  0  0  0  0  0  0
   -1.4692    0.0454    1.4644 N   0  0  0  0  0  0  0  0  0  0  0  0
   -5.0075    1.0677    1.0619 N   0  0  0  0  0  0  0  0  0  0  0  0
    0.4245    4.9748   -1.3840 N   0  0  0  0  0  0  0  0  0  0  0  0
   -5.5417    1.9277    2.1037 C   0  0  0  0  0  0  0  0  0  0  0  0
   -5.6353    0.7492   -0.1380 C   0  0  0  0  0  0  0  0  0  0  0  0
   -4.8108   -0.1413   -0.8010 C   0  0  0  0  0  0  0  0  0  0  0  0
   -3.8379    0.3641    1.1052 C   0  0  1  0  0  3  0  0  0  0  0  0
   -2.7723    0.2834    2.1500 C   0  0  0  0  0  0  0  0  0  0  0  0
   -0.4943   -0.6878    2.3523 C   0  0  0  0  0  0  0  0  0  0  0  0
    0.8249   -0.9176    1.6716 C   0  0  0  0  0  0  0  0  0  0  0  0
    0.8781   -1.7281    0.4933 C   0  0  0  0  0  0  0  0  0  0  0  0
    2.1617   -1.9447   -0.1285 C   0  0  0  0  0  0  0  0  0  0  0  0
    3.2788   -1.3136    0.4332 C   0  0  0  0  0  0  0  0  0  0  0  0
    3.2348   -0.4728    1.5702 C   0  0  0  0  0  0  0  0  0  0  0  0
    1.9858   -0.3017    2.1784 C   0  0  0  0  0  0  0  0  0  0  0  0
   -0.8604    1.3224    0.9904 C   0  0  0  0  0  0  0  0  0  0  0  0
   -1.4920    1.9860   -0.2409 C   0  0  0  0  0  0  0  0  0  0  0  0
   -0.5476    3.0132   -0.7913 C   0  0  0  0  0  0  0  0  0  0  0  0
   -0.7108    4.3888   -0.8482 C   0  0  0  0  0  0  0  0  0  0  0  0
    1.3542    3.9954   -1.6807 C   0  0  0  0  0  0  0  0  0  0  0  0
    2.6482    4.0917   -2.2233 C   0  0  0  0  0  0  0  0  0  0  0  0
    3.3625    2.9017   -2.4039 C   0  0  0  0  0  0  0  0  0  0  0  0
    2.8012    1.6467   -2.0609 C   0  0  0  0  0  0  0  0  0  0  0  0
    1.5137    1.5512   -1.5266 C   0  0  0  0  0  0  0  0  0  0  0  0
    0.7710    2.7369   -1.3218 C   0  0  0  0  0  0  0  0  0  0  0  0
    2.2798   -2.8424   -1.3751 C   0  0  0  0  0  0  0  0  0  0  0  0
    1.4293   -2.2662   -2.5331 C   0  0  0  0  0  0  0  0  0  0  0  0
    1.7866   -4.2675   -1.0290 C   0  0  0  0  0  0  0  0  0  0  0  0
    3.7348   -2.9502   -1.8670 C   0  0  0  0  0  0  0  0  0  0  0  0
    4.5172    0.2191    2.0617 C   0  0  0  0  0  0  0  0  0  0  0  0
    5.0699    1.1239    0.9362 C   0  0  0  0  0  0  0  0  0  0  0  0
    4.2611    1.0939    3.3008 C   0  0  0  0  0  0  0  0  0  0  0  0
    5.5724   -0.8483    2.4299 C   0  0  0  0  0  0  0  0  0  0  0  0
   -6.2392    2.6568    1.6523 H   0  0  0  0  0  0  0  0  0  0  0  0
   -6.0846    1.3424    2.8740 H   0  0  0  0  0  0  0  0  0  0  0  0
   -4.7215    2.4877    2.5917 H   0  0  0  0  0  0  0  0  0  0  0  0
   -6.6046    1.1809   -0.4057 H   0  0  0  0  0  0  0  0  0  0  0  0
   -4.9136   -0.6429   -1.7690 H   0  0  0  0  0  0  0  0  0  0  0  0
   -2.9608   -0.5902    2.8121 H   0  0  0  0  0  0  0  0  0  0  0  0
   -2.7293    1.1907    2.7950 H   0  0  0  0  0  0  0  0  0  0  0  0
   -0.3366   -0.0972    3.2837 H   0  0  0  0  0  0  0  0  0  0  0  0
   -0.9957   -1.6432    2.6178 H   0  0  0  0  0  0  0  0  0  0  0  0
    4.2520   -1.4636   -0.0534 H   0  0  0  0  0  0  0  0  0  0  0  0
    1.8821    0.3343    3.0704 H   0  0  0  0  0  0  0  0  0  0  0  0
   -0.8273    2.0373    1.8456 H   0  0  0  0  0  0  0  0  0  0  0  0
    0.1896    1.0749    0.7526 H   0  0  0  0  0  0  0  0  0  0  0  0
   -1.6783    1.1917   -0.9980 H   0  0  0  0  0  0  0  0  0  0  0  0
   -2.4752    2.4467   -0.0100 H   0  0  0  0  0  0  0  0  0  0  0  0
   -1.5673    5.0031   -0.5454 H   0  0  0  0  0  0  0  0  0  0  0  0
    0.5511    5.9715   -1.5449 H   0  0  0  0  0  0  0  0  0  0  0  0
    3.0850    5.0649   -2.4945 H   0  0  0  0  0  0  0  0  0  0  0  0
    4.3801    2.9428   -2.8208 H   0  0  0  0  0  0  0  0  0  0  0  0
    3.3883    0.7286   -2.2118 H   0  0  0  0  0  0  0  0  0  0  0  0
    1.0957    0.5647   -1.2752 H   0  0  0  0  0  0  0  0  0  0  0  0
    0.3583   -2.2158   -2.2637 H   0  0  0  0  0  0  0  0  0  0  0  0
    1.7794   -1.2517   -2.8150 H   0  0  0  0  0  0  0  0  0  0  0  0
    1.5273   -2.9150   -3.4285 H   0  0  0  0  0  0  0  0  0  0  0  0
    1.8787   -4.9275   -1.9169 H   0  0  0  0  0  0  0  0  0  0  0  0
    2.3947   -4.7055   -0.2107 H   0  0  0  0  0  0  0  0  0  0  0  0
    0.7266   -4.2476   -0.7155 H   0  0  0  0  0  0  0  0  0  0  0  0
    4.1479   -1.9659   -2.1708 H   0  0  0  0  0  0  0  0  0  0  0  0
    4.4066   -3.3847   -1.0985 H   0  0  0  0  0  0  0  0  0  0  0  0
    3.7727   -3.6119   -2.7557 H   0  0  0  0  0  0  0  0  0  0  0  0
    4.3263    1.8912    0.6407 H   0  0  0  0  0  0  0  0  0  0  0  0
    5.9960    1.6394    1.2674 H   0  0  0  0  0  0  0  0  0  0  0  0
    5.3167    0.5394    0.0277 H   0  0  0  0  0  0  0  0  0  0  0  0
    3.8776    0.4975    4.1536 H   0  0  0  0  0  0  0  0  0  0  0  0
    5.2060    1.5741    3.6268 H   0  0  0  0  0  0  0  0  0  0  0  0
    3.5319    1.9019    3.0878 H   0  0  0  0  0  0  0  0  0  0  0  0
    5.8194   -1.4940    1.5639 H   0  0  0  0  0  0  0  0  0  0  0  0
    6.5134   -0.3686    2.7722 H   0  0  0  0  0  0  0  0  0  0  0  0
    5.2024   -1.5052    3.2431 H   0  0  0  0  0  0  0  0  0  0  0  0
  1 13  1  0  0  0  0
  2  9  1  0  0  0  0
  3 10  1  0  0  0  0
  3 11  1  0  0  0  0
  4  9  1  0  0  0  0
  4  6  1  0  0  0  0
  5 21  1  0  0  0  0
  6 38  1  0  0  0  0
  6 37  1  0  0  0  0
  7  4  1  0  0  0  0
  8  7  2  0  0  0  0
  8  2  1  0  0  0  0
  9 10  1  1  0  0  0
 10 42  1  0  0  0  0
 10 41  1  0  0  0  0
 11 44  1  0  0  0  0
 11 43  1  0  0  0  0
 12 17  1  0  0  0  0
 12 11  1  0  0  0  0
 13 12  2  0  0  0  0
 14 15  2  0  0  0  0
 14 13  1  0  0  0  0
 15 16  1  0  0  0  0
 16 32  1  0  0  0  0
 16 17  2  0  0  0  0
 17 46  1  0  0  0  0
 18  3  1  0  0  0  0
 18 47  1  0  0  0  0
 19 50  1  0  0  0  0
 19 18  1  0  0  0  0
 20 19  1  0  0  0  0
 21 20  2  0  0  0  0
 21 51  1  0  0  0  0
 22  5  1  0  0  0  0
 22 27  1  0  0  0  0
 23 22  2  0  0  0  0
 24 23  1  0  0  0  0
 24 25  2  0  0  0  0
 25 26  1  0  0  0  0
 26 27  2  0  0  0  0
 26 56  1  0  0  0  0
 27 20  1  0  0  0  0
 28 30  1  0  0  0  0
 28 14  1  0  0  0  0
 29 57  1  0  0  0  0
 29 28  1  0  0  0  0
 30 62  1  0  0  0  0
 30 61  1  0  0  0  0
 31 28  1  0  0  0  0
 31 64  1  0  0  0  0
 32 35  1  0  0  0  0
 32 34  1  0  0  0  0
 33 67  1  0  0  0  0
 33 32  1  0  0  0  0
 34 70  1  0  0  0  0
 34 69  1  0  0  0  0
 35 73  1  0  0  0  0
 35 74  1  0  0  0  0
 36  6  1  0  0  0  0
 39  7  1  0  0  0  0
 40  8  1  0  0  0  0
 45 15  1  0  0  0  0
 48 18  1  0  0  0  0
 49 19  1  0  0  0  0
 52  5  1  0  0  0  0
 53 23  1  0  0  0  0
 54 24  1  0  0  0  0
 55 25  1  0  0  0  0
 58 29  1  0  0  0  0
 59 29  1  0  0  0  0
 60 30  1  0  0  0  0
 63 31  1  0  0  0  0
 65 31  1  0  0  0  0
 66 33  1  0  0  0  0
 68 33  1  0  0  0  0
 71 34  1  0  0  0  0
 72 35  1  0  0  0  0
M  CHG  1   1  -1
M  END
