2,3,4
 OpenBabel05122313063D

 29 29  0  0  0  0  0  0  0  0999 V2000
    6.2272   -0.1825   -0.3576 Br  0  0  0  0  0  0  0  0  0  0  0  0
    0.4183    1.3345    0.5363 O   0  5  0  0  0  0  0  0  0  0  0  0
   -3.0217   -1.6885    0.1926 N   0  0  0  0  0  0  0  0  0  0  0  0
   -0.1438   -1.5928    0.1890 N   0  0  0  0  0  2  0  0  0  0  0  0
    1.6294    0.9384    0.3378 C   0  0  0  0  0  0  0  0  0  0  0  0
    1.1569   -1.5751    0.0669 C   0  0  0  0  0  3  0  0  0  0  0  0
    1.6716   -2.5563   -0.0686 H   0  0  0  0  0  0  0  0  0  0  0  0
    3.4231   -0.7407   -0.1086 C   0  0  0  0  0  0  0  0  0  0  0  0
    3.7161   -1.7869   -0.2878 H   0  0  0  0  0  0  0  0  0  0  0  0
    2.0409   -0.4416    0.0944 C   0  0  0  0  0  0  0  0  0  0  0  0
    4.0156    1.5970    0.1585 C   0  0  0  0  0  0  0  0  0  0  0  0
    4.7879    2.3801    0.1809 H   0  0  0  0  0  0  0  0  0  0  0  0
    2.6839    1.9188    0.3622 C   0  0  0  0  0  0  0  0  0  0  0  0
    2.3770    2.9587    0.5471 H   0  0  0  0  0  0  0  0  0  0  0  0
   -0.8480   -2.8598    0.2106 C   0  0  0  0  0  0  0  0  0  0  0  0
   -0.9889   -3.1797    1.2714 H   0  0  0  0  0  0  0  0  0  0  0  0
   -0.2659   -3.6698   -0.2870 H   0  0  0  0  0  0  0  0  0  0  0  0
    4.3902    0.2501   -0.0812 C   0  0  0  0  0  0  0  0  0  0  0  0
   -4.3036   -1.3575   -0.4571 C   0  0  0  0  0  0  0  0  0  0  0  0
   -4.0676   -1.0073   -1.4835 H   0  0  0  0  0  0  0  0  0  0  0  0
   -4.7138   -0.4750    0.0752 H   0  0  0  0  0  0  0  0  0  0  0  0
   -2.2288   -2.7460   -0.4453 C   0  0  0  0  0  0  0  0  0  0  0  0
   -2.1096   -2.4735   -1.5162 H   0  0  0  0  0  0  0  0  0  0  0  0
   -2.7231   -3.7447   -0.4145 H   0  0  0  0  0  0  0  0  0  0  0  0
   -5.3324   -2.4875   -0.4882 C   0  0  0  0  0  0  0  0  0  0  0  0
   -6.2780   -2.1322   -0.9443 H   0  0  0  0  0  0  0  0  0  0  0  0
   -5.5724   -2.8436    0.5359 H   0  0  0  0  0  0  0  0  0  0  0  0
   -4.9877   -3.3589   -1.0812 H   0  0  0  0  0  0  0  0  0  0  0  0
   -3.1946   -1.9322    1.1790 H   0  0  0  0  0  0  0  0  0  0  0  0
  1 18  1  0  0  0  0
  3 29  1  0  0  0  0
  4 15  1  0  0  0  0
  5 13  1  0  0  0  0
  5  2  1  0  0  0  0
  6 10  1  0  0  0  0
  6  4  1  0  0  0  0
  7  6  1  0  0  0  0
  8 18  2  0  0  0  0
  8 10  1  0  0  0  0
  9  8  1  0  0  0  0
 10  5  2  0  0  0  0
 11 12  1  0  0  0  0
 11 13  2  0  0  0  0
 13 14  1  0  0  0  0
 15 16  1  0  0  0  0
 17 15  1  0  0  0  0
 18 11  1  0  0  0  0
 19 21  1  0  0  0  0
 19  3  1  0  0  0  0
 20 19  1  0  0  0  0
 22 24  1  0  0  0  0
 22  3  1  0  0  0  0
 22 15  1  0  0  0  0
 23 22  1  0  0  0  0
 25 19  1  0  0  0  0
 25 27  1  0  0  0  0
 26 25  1  0  0  0  0
 28 25  1  0  0  0  0
M  CHG  1   2  -1
M  END
