1,2,3
 OpenBabel05122313063D

 46 50  0  0  0  0  0  0  0  0999 V2000
    0.4701   -1.2803   -0.3235 O   0  5  0  0  0  0  0  0  0  0  0  0
   -3.4593   -0.8570    0.1235 N   0  0  0  0  0  2  0  0  0  0  0  0
   -1.3903    0.7390   -0.1061 N   0  0  0  0  0  2  0  0  0  0  0  0
    5.0987   -0.1790    0.0172 N   0  0  0  0  0  0  0  0  0  0  0  0
   -4.4364   -1.7522    0.2559 C   0  0  0  0  0  0  0  0  0  0  0  0
   -4.1129   -2.7996    0.3542 H   0  0  0  0  0  0  0  0  0  0  0  0
   -5.8001   -1.3723    0.2491 C   0  0  0  0  0  0  0  0  0  0  0  0
   -6.5742   -2.1432    0.3704 H   0  0  0  0  0  0  0  0  0  0  0  0
   -6.1343   -0.0356    0.0785 C   0  0  0  0  0  0  0  0  0  0  0  0
   -7.1873    0.2859    0.0601 H   0  0  0  0  0  0  0  0  0  0  0  0
   -5.1077    0.9360   -0.0868 C   0  0  0  0  0  0  0  0  0  0  0  0
   -5.3361    2.3250   -0.3005 C   0  0  0  0  0  3  0  0  0  0  0  0
   -6.3681    2.7036   -0.3382 H   0  0  0  0  0  0  0  0  0  0  0  0
   -4.2521    3.1768   -0.4784 C   0  0  0  0  0  0  0  0  0  0  0  0
   -4.4272    4.2473   -0.6648 H   0  0  0  0  0  0  0  0  0  0  0  0
   -2.9170    2.7051   -0.4393 C   0  0  0  0  0  0  0  0  0  0  0  0
   -2.0986    3.4170   -0.6152 H   0  0  0  0  0  0  0  0  0  0  0  0
   -2.6400    1.3514   -0.1996 C   0  0  0  0  0  0  0  0  0  0  0  0
   -3.7556    0.4600   -0.0459 C   0  0  0  0  0  0  0  0  0  0  0  0
   -0.2944    1.4805    0.0319 C   0  0  0  0  0  3  0  0  0  0  0  0
   -0.4170    2.5769    0.1443 H   0  0  0  0  0  0  0  0  0  0  0  0
    1.0397    1.0205    0.0659 C   0  0  0  0  0  0  0  0  0  0  0  0
    2.0993    1.9571    0.2576 C   0  0  0  0  0  0  0  0  0  0  0  0
    1.8364    3.0164    0.4171 H   0  0  0  0  0  0  0  0  0  0  0  0
    3.4309    1.5944    0.2649 C   0  0  0  0  0  0  0  0  0  0  0  0
    4.5226    2.6053    0.5332 C   0  0  0  0  0  0  0  0  0  0  0  0
    4.2074    3.6074    0.1778 H   0  0  0  0  0  0  0  0  0  0  0  0
    4.6829    2.7037    1.6319 H   0  0  0  0  0  0  0  0  0  0  0  0
    5.8352    2.1743   -0.1176 C   0  0  0  0  0  0  0  0  0  0  0  0
    5.7390    2.2002   -1.2241 H   0  0  0  0  0  0  0  0  0  0  0  0
    6.6659    2.8540    0.1594 H   0  0  0  0  0  0  0  0  0  0  0  0
    6.1739    0.7554    0.3232 C   0  0  0  0  0  0  0  0  0  0  0  0
    7.0890    0.3942   -0.1917 H   0  0  0  0  0  0  0  0  0  0  0  0
    6.4041    0.7434    1.4182 H   0  0  0  0  0  0  0  0  0  0  0  0
    5.4605   -1.5920   -0.0306 C   0  0  0  0  0  0  0  0  0  0  0  0
    6.4971   -1.6590   -0.4213 H   0  0  0  0  0  0  0  0  0  0  0  0
    5.4802   -2.0202    1.0018 H   0  0  0  0  0  0  0  0  0  0  0  0
    4.4968   -2.3852   -0.9071 C   0  0  0  0  0  0  0  0  0  0  0  0
    4.7956   -3.4526   -0.9124 H   0  0  0  0  0  0  0  0  0  0  0  0
    4.5786   -2.0163   -1.9519 H   0  0  0  0  0  0  0  0  0  0  0  0
    3.0673   -2.2125   -0.4012 C   0  0  0  0  0  0  0  0  0  0  0  0
    2.9183   -2.7880    0.5406 H   0  0  0  0  0  0  0  0  0  0  0  0
    2.3259   -2.6307   -1.1112 H   0  0  0  0  0  0  0  0  0  0  0  0
    3.7720    0.2035    0.0409 C   0  0  0  0  0  0  0  0  0  0  0  0
    2.7477   -0.7578   -0.1619 C   0  0  0  0  0  0  0  0  0  0  0  0
    1.3834   -0.3711   -0.1351 C   0  0  0  0  0  0  0  0  0  0  0  0
  1 46  1  0  0  0  0
  2  5  1  0  0  0  0
  3 20  1  0  0  0  0
  4 44  1  0  0  0  0
  4 32  1  0  0  0  0
  5  6  1  0  0  0  0
  7  5  2  0  0  0  0
  7  8  1  0  0  0  0
  9  7  1  0  0  0  0
 10  9  1  0  0  0  0
 11 19  1  0  0  0  0
 11  9  2  0  0  0  0
 12 11  1  0  0  0  0
 13 12  1  0  0  0  0
 14 16  2  0  0  0  0
 14 12  1  0  0  0  0
 15 14  1  0  0  0  0
 16 18  1  0  0  0  0
 17 16  1  0  0  0  0
 18  3  1  0  0  0  0
 18 19  2  0  0  0  0
 19  2  1  0  0  0  0
 20 22  1  0  0  0  0
 20 21  1  0  0  0  0
 22 23  1  0  0  0  0
 23 25  2  0  0  0  0
 23 24  1  0  0  0  0
 25 26  1  0  0  0  0
 26 28  1  0  0  0  0
 27 26  1  0  0  0  0
 29 31  1  0  0  0  0
 29 32  1  0  0  0  0
 29 26  1  0  0  0  0
 30 29  1  0  0  0  0
 32 34  1  0  0  0  0
 33 32  1  0  0  0  0
 35  4  1  0  0  0  0
 35 37  1  0  0  0  0
 36 35  1  0  0  0  0
 38 41  1  0  0  0  0
 38 35  1  0  0  0  0
 39 38  1  0  0  0  0
 40 38  1  0  0  0  0
 41 45  1  0  0  0  0
 41 42  1  0  0  0  0
 43 41  1  0  0  0  0
 44 25  1  0  0  0  0
 45 46  1  0  0  0  0
 45 44  2  0  0  0  0
 46 22  2  0  0  0  0
M  CHG  1   1  -1
M  END
