1,2,3
 OpenBabel05122313063D

 35 34  0  0  1  0  0  0  0  0999 V2000
   -1.6813   -1.3409   -0.1539 O   0  5  0  0  0  0  0  0  0  0  0  0
   -0.7817    1.2381    0.0738 N   0  0  0  0  0  2  0  0  0  0  0  0
    1.7323    0.3525    0.1244 N   0  0  0  0  0  0  0  0  0  0  0  0
   -2.5007    3.0113    0.0457 C   0  0  0  0  0  0  0  0  0  0  0  0
   -3.6004    3.0974   -0.0080 H   0  0  0  0  0  0  0  0  0  0  0  0
   -2.0707    3.5642   -0.8154 H   0  0  0  0  0  0  0  0  0  0  0  0
   -2.1634    3.5334    0.9661 H   0  0  0  0  0  0  0  0  0  0  0  0
   -2.0796    1.5573    0.0385 C   0  0  1  0  0  3  0  0  0  0  0  0
   -3.0987    0.5756   -0.0091 C   0  0  0  0  0  0  0  0  0  0  0  0
   -4.1417    0.9164    0.0086 H   0  0  0  0  0  0  0  0  0  0  0  0
   -2.8491   -0.8021   -0.0885 C   0  0  0  0  0  0  0  0  0  0  0  0
   -3.9899   -1.7930   -0.1155 C   0  0  0  0  0  0  0  0  0  0  0  0
   -4.9779   -1.2980   -0.0849 H   0  0  0  0  0  0  0  0  0  0  0  0
   -3.9009   -2.4847    0.7472 H   0  0  0  0  0  0  0  0  0  0  0  0
   -3.9179   -2.4170   -1.0294 H   0  0  0  0  0  0  0  0  0  0  0  0
    0.2316    2.2877    0.0648 C   0  0  0  0  0  0  0  0  0  0  0  0
   -0.0756    3.1870    0.6391 H   0  0  0  0  0  0  0  0  0  0  0  0
    0.4334    2.6372   -0.9759 H   0  0  0  0  0  0  0  0  0  0  0  0
    1.4774    1.7018    0.6940 C   0  0  0  0  0  0  0  0  0  0  0  0
    2.3632    2.3623    0.5709 H   0  0  0  0  0  0  0  0  0  0  0  0
    1.3017    1.5719    1.7782 H   0  0  0  0  0  0  0  0  0  0  0  0
    2.2802    0.4155   -1.2710 C   0  0  0  0  0  0  0  0  0  0  0  0
    1.5307    0.9504   -1.8879 H   0  0  0  0  0  0  0  0  0  0  0  0
    2.2808   -0.6361   -1.6211 H   0  0  0  0  0  0  0  0  0  0  0  0
    3.6572    1.0561   -1.4346 C   0  0  0  0  0  0  0  0  0  0  0  0
    3.6911    2.1155   -1.1076 H   0  0  0  0  0  0  0  0  0  0  0  0
    3.9280    1.0400   -2.5089 H   0  0  0  0  0  0  0  0  0  0  0  0
    4.4468    0.5009   -0.8913 H   0  0  0  0  0  0  0  0  0  0  0  0
    2.6444   -0.4208    1.0270 C   0  0  0  0  0  0  0  0  0  0  0  0
    3.5283    0.2163    1.2561 H   0  0  0  0  0  0  0  0  0  0  0  0
    2.9754   -1.3014    0.4453 H   0  0  0  0  0  0  0  0  0  0  0  0
    1.9773   -0.9087    2.3053 C   0  0  0  0  0  0  0  0  0  0  0  0
    1.5434   -0.0907    2.9149 H   0  0  0  0  0  0  0  0  0  0  0  0
    2.7319   -1.4219    2.9348 H   0  0  0  0  0  0  0  0  0  0  0  0
    1.1813   -1.6361    2.0527 H   0  0  0  0  0  0  0  0  0  0  0  0
  1 11  1  0  0  0  0
  3 19  1  0  0  0  0
  3 29  1  0  0  0  0
  4  7  1  0  0  0  0
  5  4  1  0  0  0  0
  6  4  1  0  0  0  0
  8  9  1  6  0  0  0
  8  4  1  0  0  0  0
  8  2  1  0  0  0  0
  9 10  1  0  0  0  0
 11  9  2  0  0  0  0
 12 11  1  0  0  0  0
 12 13  1  0  0  0  0
 12 14  1  0  0  0  0
 15 12  1  0  0  0  0
 16  2  1  0  0  0  0
 16 17  1  0  0  0  0
 16 19  1  0  0  0  0
 18 16  1  0  0  0  0
 19 21  1  0  0  0  0
 20 19  1  0  0  0  0
 22  3  1  0  0  0  0
 23 22  1  0  0  0  0
 24 22  1  0  0  0  0
 25 22  1  0  0  0  0
 25 26  1  0  0  0  0
 25 28  1  0  0  0  0
 27 25  1  0  0  0  0
 29 30  1  0  0  0  0
 29 32  1  0  0  0  0
 31 29  1  0  0  0  0
 32 33  1  0  0  0  0
 32 34  1  0  0  0  0
 35 32  1  0  0  0  0
M  CHG  1   1  -1
M  END
