1,2,3
 OpenBabel05122313063D

 42 44  0  0  1  0  0  0  0  0999 V2000
   -0.9929   -1.0236   -0.4041 O   0  5  0  0  0  0  0  0  0  0  0  0
    1.1336    0.4731    0.2181 N   0  0  0  0  0  2  0  0  0  0  0  0
    2.7354   -1.4477    1.0062 N   0  0  0  0  0  0  0  0  0  0  0  0
    3.0954   -2.4089    0.9638 H   0  0  0  0  0  0  0  0  0  0  0  0
    2.8559   -1.0902    1.9640 H   0  0  0  0  0  0  0  0  0  0  0  0
   -1.7193    0.0017   -0.0772 C   0  0  0  0  0  0  0  0  0  0  0  0
   -1.1733    1.2093    0.4713 C   0  0  0  0  0  0  0  0  0  0  0  0
   -2.0877    2.2626    0.8294 C   0  0  0  0  0  0  0  0  0  0  0  0
   -1.6943    3.1866    1.2731 H   0  0  0  0  0  0  0  0  0  0  0  0
   -3.4468    2.1645    0.6395 C   0  0  0  0  0  0  0  0  0  0  0  0
   -4.1107    2.9904    0.9356 H   0  0  0  0  0  0  0  0  0  0  0  0
   -4.0167    0.9914    0.0471 C   0  0  0  0  0  0  0  0  0  0  0  0
   -5.4122    0.8536   -0.1867 C   0  0  0  0  0  0  0  0  0  0  0  0
   -6.0809    1.6815    0.0962 H   0  0  0  0  0  0  0  0  0  0  0  0
   -5.9274   -0.3036   -0.7617 C   0  0  0  0  0  0  0  0  0  0  0  0
   -7.0107   -0.3931   -0.9364 H   0  0  0  0  0  0  0  0  0  0  0  0
   -5.0666   -1.3708   -1.1197 C   0  0  0  0  0  0  0  0  0  0  0  0
   -5.4836   -2.2842   -1.5699 H   0  0  0  0  0  0  0  0  0  0  0  0
   -3.6981   -1.2662   -0.8960 C   0  0  0  0  0  0  0  0  0  0  0  0
   -3.0081   -2.0824   -1.1527 H   0  0  0  0  0  0  0  0  0  0  0  0
   -3.1513   -0.0908   -0.3187 C   0  0  0  0  0  0  0  0  0  0  0  0
    0.2647    1.4302    0.5120 C   0  0  2  0  0  3  0  0  0  0  0  0
    0.7298    2.8248    0.8827 C   0  0  0  0  0  0  0  0  0  0  0  0
    1.8212    2.8947    1.0185 H   0  0  0  0  0  0  0  0  0  0  0  0
    0.2545    3.1341    1.8336 H   0  0  0  0  0  0  0  0  0  0  0  0
    0.4252    3.5667    0.1176 H   0  0  0  0  0  0  0  0  0  0  0  0
    2.5614    0.7637    0.0616 C   0  0  2  0  0  0  0  0  0  0  0  0
    2.9402    1.2935    0.9713 H   0  0  0  0  0  0  0  0  0  0  0  0
    2.9351    1.6056   -1.1714 C   0  0  0  0  0  0  0  0  0  0  0  0
    2.3951    2.5724   -1.1663 H   0  0  0  0  0  0  0  0  0  0  0  0
    2.5959    1.0595   -2.0779 H   0  0  0  0  0  0  0  0  0  0  0  0
    5.2503    0.5298   -1.1634 C   0  0  0  0  0  0  0  0  0  0  0  0
    6.3384    0.7404   -1.1200 H   0  0  0  0  0  0  0  0  0  0  0  0
    5.0787   -0.0362   -2.1052 H   0  0  0  0  0  0  0  0  0  0  0  0
    4.4527    1.8414   -1.2127 C   0  0  0  0  0  0  0  0  0  0  0  0
    4.7212    2.4180   -2.1216 H   0  0  0  0  0  0  0  0  0  0  0  0
    4.7412    2.4780   -0.3461 H   0  0  0  0  0  0  0  0  0  0  0  0
    4.8295   -0.3532    0.0218 C   0  0  0  0  0  0  0  0  0  0  0  0
    5.3552   -1.3305   -0.0128 H   0  0  0  0  0  0  0  0  0  0  0  0
    5.1103    0.1314    0.9845 H   0  0  0  0  0  0  0  0  0  0  0  0
    3.3156   -0.5732   -0.0158 C   0  0  1  0  0  0  0  0  0  0  0  0
    3.0505   -1.0556   -0.9835 H   0  0  0  0  0  0  0  0  0  0  0  0
  1  6  1  0  0  0  0
  3  5  1  0  0  0  0
  4  3  1  0  0  0  0
  6  7  1  0  0  0  0
  7 22  1  0  0  0  0
  7  8  2  0  0  0  0
  8  9  1  0  0  0  0
 10  8  1  0  0  0  0
 10 11  1  0  0  0  0
 12 10  2  0  0  0  0
 13 12  1  0  0  0  0
 13 14  1  0  0  0  0
 15 13  2  0  0  0  0
 16 15  1  0  0  0  0
 17 19  2  0  0  0  0
 17 15  1  0  0  0  0
 18 17  1  0  0  0  0
 19 21  1  0  0  0  0
 20 19  1  0  0  0  0
 21  6  2  0  0  0  0
 21 12  1  0  0  0  0
 22  2  1  6  0  0  0
 22 23  1  0  0  0  0
 23 24  1  0  0  0  0
 23 25  1  0  0  0  0
 26 23  1  0  0  0  0
 27  2  1  0  0  0  0
 27 28  1  1  0  0  0
 29 30  1  0  0  0  0
 29 27  1  0  0  0  0
 31 29  1  0  0  0  0
 32 33  1  0  0  0  0
 32 38  1  0  0  0  0
 34 32  1  0  0  0  0
 35 29  1  0  0  0  0
 35 32  1  0  0  0  0
 35 37  1  0  0  0  0
 36 35  1  0  0  0  0
 38 40  1  0  0  0  0
 39 38  1  0  0  0  0
 41 42  1  6  0  0  0
 41 38  1  0  0  0  0
 41 27  1  0  0  0  0
 41  3  1  0  0  0  0
M  CHG  1   1  -1
M  END
