2,3,8
 OpenBabel05122313063D

 34 36  0  0  1  0  0  0  0  0999 V2000
   -2.8721   -0.3579    2.9005 N   0  0  0  0  0  0  0  0  0  0  0  0
   -1.1456   -1.9159   -0.8595 O   0  5  0  0  0  0  0  0  0  0  0  0
   -1.8325    0.8592   -1.8563 N   0  0  0  0  0  2  0  0  0  0  0  0
   -1.8271    2.2849   -2.1167 C   0  0  0  0  0  0  0  0  0  0  0  0
   -2.7723    2.6026   -2.6199 H   0  0  0  0  0  0  0  0  0  0  0  0
   -0.9724    2.5496   -2.7743 H   0  0  0  0  0  0  0  0  0  0  0  0
   -2.5982    2.6831    0.2222 N   0  0  0  0  0  0  0  0  0  0  0  0
   -1.5072    0.6915    1.2047 N   0  0  0  0  0  2  0  0  0  0  0  0
   -1.6421    3.0760   -0.8037 C   0  0  0  0  0  0  0  0  0  0  0  0
   -0.6112    2.9095   -0.4270 H   0  0  0  0  0  0  0  0  0  0  0  0
   -1.7647    4.1603   -0.9965 H   0  0  0  0  0  0  0  0  0  0  0  0
   -3.8383    3.2528    0.4801 C   0  0  0  0  0  0  0  0  0  0  0  0
   -4.1650    4.1463   -0.0701 H   0  0  0  0  0  0  0  0  0  0  0  0
   -4.5277    2.6372    1.4239 N   0  0  0  0  0  0  0  0  0  0  0  0
   -3.7075    1.5949    1.8059 C   0  0  0  0  0  0  0  0  0  0  0  0
   -2.5013    1.5953    1.0720 C   0  0  2  0  0  3  0  0  0  0  0  0
   -1.7800   -0.2486    2.1352 C   0  0  0  0  0  0  0  0  0  0  0  0
   -1.0028   -1.0209    2.2651 H   0  0  0  0  0  0  0  0  0  0  0  0
   -3.8641    0.5498    2.7574 C   0  0  0  0  0  0  0  0  0  0  0  0
   -4.9732    0.4389    3.5211 N   0  0  0  0  0  0  0  0  0  0  0  0
   -5.0633   -0.3598    4.1466 H   0  0  0  0  0  0  0  0  0  0  0  0
   -5.7455    1.0871    3.3830 H   0  0  0  0  0  0  0  0  0  0  0  0
   -2.9807    0.2427   -1.9353 C   0  0  0  0  0  3  0  0  0  0  0  0
   -3.8488    0.8392   -2.3085 H   0  0  0  0  0  0  0  0  0  0  0  0
   -3.3281   -1.1116   -1.5843 C   0  0  0  0  0  0  0  0  0  0  0  0
   -2.4097   -2.1095   -1.0525 C   0  0  0  0  0  0  0  0  0  0  0  0
   -5.2053   -2.7110   -1.4529 C   0  0  0  0  0  0  0  0  0  0  0  0
   -6.2690   -2.9438   -1.6044 H   0  0  0  0  0  0  0  0  0  0  0  0
   -2.9744   -3.3930   -0.7363 C   0  0  0  0  0  0  0  0  0  0  0  0
   -2.2832   -4.1445   -0.3258 H   0  0  0  0  0  0  0  0  0  0  0  0
   -4.7007   -1.4567   -1.7667 C   0  0  0  0  0  0  0  0  0  0  0  0
   -5.3737   -0.6817   -2.1705 H   0  0  0  0  0  0  0  0  0  0  0  0
   -4.3176   -3.6841   -0.9306 C   0  0  0  0  0  0  0  0  0  0  0  0
   -4.6974   -4.6855   -0.6711 H   0  0  0  0  0  0  0  0  0  0  0  0
  4  3  1  0  0  0  0
  4  9  1  0  0  0  0
  5  4  1  0  0  0  0
  6  4  1  0  0  0  0
  7 12  1  0  0  0  0
  7 16  1  0  0  0  0
  8 17  1  0  0  0  0
  9 10  1  0  0  0  0
  9  7  1  0  0  0  0
 11  9  1  0  0  0  0
 12 14  2  0  0  0  0
 13 12  1  0  0  0  0
 14 15  1  0  0  0  0
 15 19  2  0  0  0  0
 16  8  1  6  0  0  0
 16 15  1  0  0  0  0
 17 18  1  0  0  0  0
 17  1  2  0  0  0  0
 19  1  1  0  0  0  0
 19 20  1  0  0  0  0
 20 21  1  0  0  0  0
 22 20  1  0  0  0  0
 23  3  1  0  0  0  0
 23 25  1  0  0  0  0
 24 23  1  0  0  0  0
 25 26  1  0  0  0  0
 26  2  1  0  0  0  0
 26 29  2  0  0  0  0
 27 33  2  0  0  0  0
 28 27  1  0  0  0  0
 29 30  1  0  0  0  0
 31 25  2  0  0  0  0
 31 27  1  0  0  0  0
 32 31  1  0  0  0  0
 33 29  1  0  0  0  0
 33 34  1  0  0  0  0
M  CHG  1   2  -1
M  END
