3,4,5
 OpenBabel05122313063D

 30 32  0  0  1  0  0  0  0  0999 V2000
    6.8679    2.4097   -0.9095 Cl  0  0  0  0  0  0  0  0  0  0  0  0
    3.8650   -2.0400   -1.7902 Cl  0  0  0  0  0  0  0  0  0  0  0  0
    1.6191   -0.2796   -1.2085 O   0  5  0  0  0  0  0  0  0  0  0  0
   -1.3967    0.9186    1.4996 N   0  0  0  0  0  2  0  0  0  0  0  0
    0.5436    2.0485    0.0241 N   0  0  0  0  0  2  0  0  0  0  0  0
   -2.3380    0.2958    2.1991 C   0  0  0  0  0  0  0  0  0  0  0  0
   -2.1760   -0.7778    2.3927 H   0  0  0  0  0  0  0  0  0  0  0  0
   -3.5062    0.9517    2.6640 C   0  0  0  0  0  0  0  0  0  0  0  0
   -4.2588    0.3880    3.2332 H   0  0  0  0  0  0  0  0  0  0  0  0
   -3.6824    2.2941    2.3645 C   0  0  0  0  0  0  0  0  0  0  0  0
   -4.5853    2.8324    2.6922 H   0  0  0  0  0  0  0  0  0  0  0  0
   -2.6931    2.9912    1.6143 C   0  0  0  0  0  0  0  0  0  0  0  0
   -2.7950    4.3641    1.2511 C   0  0  0  0  0  0  0  0  0  0  0  0
   -3.6788    4.9390    1.5653 H   0  0  0  0  0  0  0  0  0  0  0  0
   -1.7924    4.9532    0.4918 C   0  0  0  0  0  0  0  0  0  0  0  0
   -1.8822    6.0084    0.1923 H   0  0  0  0  0  0  0  0  0  0  0  0
   -0.6569    4.2176    0.0722 C   0  0  0  0  0  0  0  0  0  0  0  0
    0.0955    4.6991   -0.5692 H   0  0  0  0  0  0  0  0  0  0  0  0
   -0.5051    2.8709    0.4195 C   0  0  0  0  0  0  0  0  0  0  0  0
   -1.5442    2.2400    1.1979 C   0  0  2  0  0  3  0  0  0  0  0  0
    1.7589    2.4971   -0.1914 C   0  0  0  0  0  3  0  0  0  0  0  0
    1.9823    3.5620    0.0453 H   0  0  0  0  0  0  0  0  0  0  0  0
    2.8731    1.7183   -0.6455 C   0  0  0  0  0  0  0  0  0  0  0  0
    4.1550    2.3448   -0.6158 C   0  0  0  0  0  0  0  0  0  0  0  0
    4.2341    3.3967   -0.3027 H   0  0  0  0  0  0  0  0  0  0  0  0
    5.2976    1.6394   -0.9547 C   0  0  0  0  0  0  0  0  0  0  0  0
    5.2141    0.2728   -1.3293 C   0  0  0  0  0  0  0  0  0  0  0  0
    6.1263   -0.2905   -1.5681 H   0  0  0  0  0  0  0  0  0  0  0  0
    3.9770   -0.3509   -1.3828 C   0  0  0  0  0  0  0  0  0  0  0  0
    2.7294    0.3334   -1.0892 C   0  0  0  0  0  0  0  0  0  0  0  0
  2 29  1  0  0  0  0
  3 30  1  0  0  0  0
  4  6  1  0  0  0  0
  5 19  1  0  0  0  0
  6  7  1  0  0  0  0
  6  8  2  0  0  0  0
  8  9  1  0  0  0  0
 10  8  1  0  0  0  0
 10 11  1  0  0  0  0
 12 10  2  0  0  0  0
 13 14  1  0  0  0  0
 13 12  1  0  0  0  0
 15 13  2  0  0  0  0
 16 15  1  0  0  0  0
 17 19  2  0  0  0  0
 17 15  1  0  0  0  0
 18 17  1  0  0  0  0
 20 19  1  6  0  0  0
 20  4  1  0  0  0  0
 20 12  1  0  0  0  0
 21  5  1  0  0  0  0
 21 22  1  0  0  0  0
 23 24  1  0  0  0  0
 23 21  1  0  0  0  0
 24 25  1  0  0  0  0
 26  1  1  0  0  0  0
 26 24  2  0  0  0  0
 27 26  1  0  0  0  0
 28 27  1  0  0  0  0
 29 27  2  0  0  0  0
 29 30  1  0  0  0  0
 30 23  2  0  0  0  0
M  CHG  1   3  -1
M  END
