2,4,6
 OpenBabel05122313063D

 32 34  0  0  0  0  0  0  0  0999 V2000
   -3.6344    2.2379    0.4694 S   0  0  0  0  0  0  0  0  0  0  0  0
    1.8205   -0.5070   -0.3792 O   0  5  0  0  0  0  0  0  0  0  0  0
    4.2228   -1.5289   -0.5049 O   0  0  0  0  0  0  0  0  0  0  0  0
   -1.9892    0.2920   -0.1529 N   0  0  0  0  0  2  0  0  0  0  0  0
   -0.9457    2.3834    0.3140 N   0  0  0  0  0  0  0  0  0  0  0  0
    0.1804    1.6660    0.0487 N   0  0  0  0  0  2  0  0  0  0  0  0
   -2.0110    1.6164    0.1847 C   0  0  0  0  0  0  0  0  0  0  0  0
   -3.2626   -0.2799   -0.1983 C   0  0  0  0  0  0  0  0  0  0  0  0
   -3.5924   -1.6101   -0.5135 C   0  0  0  0  0  0  0  0  0  0  0  0
   -2.7921   -2.3226   -0.7555 H   0  0  0  0  0  0  0  0  0  0  0  0
   -4.9412   -1.9936   -0.5010 C   0  0  0  0  0  0  0  0  0  0  0  0
   -5.2024   -3.0338   -0.7466 H   0  0  0  0  0  0  0  0  0  0  0  0
   -5.9607   -1.0761   -0.1854 C   0  0  0  0  0  0  0  0  0  0  0  0
   -7.0122   -1.3987   -0.1856 H   0  0  0  0  0  0  0  0  0  0  0  0
   -5.6461    0.2559    0.1282 C   0  0  0  0  0  0  0  0  0  0  0  0
   -6.4357    0.9807    0.3741 H   0  0  0  0  0  0  0  0  0  0  0  0
   -4.3004    0.6406    0.1188 C   0  0  0  0  0  0  0  0  0  0  0  0
    1.3256    2.3121    0.1318 C   0  0  0  0  0  3  0  0  0  0  0  0
    1.2561    3.3914    0.3634 H   0  0  0  0  0  0  0  0  0  0  0  0
    2.6392    1.7368   -0.0251 C   0  0  0  0  0  0  0  0  0  0  0  0
    2.8325    0.3458   -0.2531 C   0  0  0  0  0  0  0  0  0  0  0  0
    4.1559   -0.1850   -0.3237 C   0  0  0  0  0  0  0  0  0  0  0  0
    5.2583    0.6760   -0.1965 C   0  0  0  0  0  0  0  0  0  0  0  0
    6.2794    0.2764   -0.2552 H   0  0  0  0  0  0  0  0  0  0  0  0
    5.0627    2.0578    0.0094 C   0  0  0  0  0  0  0  0  0  0  0  0
    5.9371    2.7180    0.1027 H   0  0  0  0  0  0  0  0  0  0  0  0
    3.7769    2.5820    0.1003 C   0  0  0  0  0  0  0  0  0  0  0  0
    3.6205    3.6576    0.2714 H   0  0  0  0  0  0  0  0  0  0  0  0
    5.5018   -2.1275   -0.5955 C   0  0  0  0  0  0  0  0  0  0  0  0
    6.0836   -1.7290   -1.4566 H   0  0  0  0  0  0  0  0  0  0  0  0
    5.3293   -3.2087   -0.7472 H   0  0  0  0  0  0  0  0  0  0  0  0
    6.0947   -1.9808    0.3355 H   0  0  0  0  0  0  0  0  0  0  0  0
  2 21  1  0  0  0  0
  3 22  1  0  0  0  0
  4  7  1  0  0  0  0
  6 18  1  0  0  0  0
  6  5  1  0  0  0  0
  7  5  2  0  0  0  0
  7  1  1  0  0  0  0
  8  4  1  0  0  0  0
  8 17  1  0  0  0  0
  9 11  1  0  0  0  0
  9  8  2  0  0  0  0
 10  9  1  0  0  0  0
 11 13  2  0  0  0  0
 12 11  1  0  0  0  0
 13 15  1  0  0  0  0
 14 13  1  0  0  0  0
 15 16  1  0  0  0  0
 17 15  2  0  0  0  0
 17  1  1  0  0  0  0
 18 19  1  0  0  0  0
 20 27  1  0  0  0  0
 20 18  1  0  0  0  0
 21 20  2  0  0  0  0
 22 21  1  0  0  0  0
 22 23  2  0  0  0  0
 23 25  1  0  0  0  0
 24 23  1  0  0  0  0
 25 27  2  0  0  0  0
 25 26  1  0  0  0  0
 27 28  1  0  0  0  0
 29  3  1  0  0  0  0
 29 32  1  0  0  0  0
 30 29  1  0  0  0  0
 31 29  1  0  0  0  0
M  CHG  1   2  -1
M  END
