2,7,10
 OpenBabel05122313063D

 35 36  0  0  1  0  0  0  0  0999 V2000
   -3.2891   -0.1798    0.0025 C   0  0  1  0  0  3  0  0  0  0  0  0
    0.1222    1.1827   -0.6353 O   0  5  0  0  0  0  0  0  0  0  0  0
   -1.8600   -0.1778   -0.2808 C   0  0  0  0  0  0  0  0  0  0  0  0
   -1.1765   -1.4033   -0.5268 C   0  0  0  0  0  0  0  0  0  0  0  0
   -1.7928   -2.3169   -0.6403 H   0  0  0  0  0  0  0  0  0  0  0  0
   -1.1430    1.0678   -0.4018 C   0  0  0  0  0  0  0  0  0  0  0  0
    0.1125   -1.5727   -0.6734 N   0  0  0  0  0  2  0  0  0  0  0  0
   -4.0497   -1.3644    0.2059 C   0  0  0  0  0  0  0  0  0  0  0  0
   -3.5584   -2.3478    0.1822 H   0  0  0  0  0  0  0  0  0  0  0  0
    2.7219   -1.6838   -0.4510 N   0  0  0  0  0  2  0  0  0  0  0  0
   -3.9861    1.0740    0.1000 C   0  0  0  0  0  0  0  0  0  0  0  0
    1.9965   -2.9328   -0.2494 C   0  0  0  0  0  0  0  0  0  0  0  0
    1.7354   -3.1467    0.8159 H   0  0  0  0  0  0  0  0  0  0  0  0
    2.6419   -3.7752   -0.5965 H   0  0  0  0  0  0  0  0  0  0  0  0
   -5.4181   -1.3186    0.4620 C   0  0  0  0  0  0  0  0  0  0  0  0
   -5.9708   -2.2583    0.6135 H   0  0  0  0  0  0  0  0  0  0  0  0
   -1.8953    2.2976   -0.2994 C   0  0  0  0  0  0  0  0  0  0  0  0
   -1.3252    3.2302   -0.4138 H   0  0  0  0  0  0  0  0  0  0  0  0
    0.7187   -2.8433   -1.0649 C   0  0  0  0  0  0  0  0  0  0  0  0
    0.9708   -2.8003   -2.1478 H   0  0  0  0  0  0  0  0  0  0  0  0
    0.0246   -3.6962   -0.9005 H   0  0  0  0  0  0  0  0  0  0  0  0
   -3.2467    2.2924   -0.0636 C   0  0  0  0  0  0  0  0  0  0  0  0
   -3.7921    3.2466    0.0148 H   0  0  0  0  0  0  0  0  0  0  0  0
   -5.3807    1.0960    0.3655 C   0  0  0  0  0  0  0  0  0  0  0  0
   -5.8851    2.0726    0.4336 H   0  0  0  0  0  0  0  0  0  0  0  0
   -6.0978   -0.0820    0.5405 C   0  0  0  0  0  0  0  0  0  0  0  0
   -7.1779   -0.0541    0.7463 H   0  0  0  0  0  0  0  0  0  0  0  0
    1.8953   -0.2016    1.8511 O   0  0  0  0  0  0  0  0  0  0  0  0
    2.2659    0.7489    1.7288 H   0  0  0  0  0  0  0  0  0  0  0  0
    3.6583   -1.4083    0.6217 C   0  0  0  0  0  0  0  0  0  0  0  0
    4.2938   -0.5560    0.3104 H   0  0  0  0  0  0  0  0  0  0  0  0
    4.3199   -2.2969    0.7668 H   0  0  0  0  0  0  0  0  0  0  0  0
    2.9749   -1.0928    1.9880 C   0  0  0  0  0  0  0  0  0  0  0  0
    2.5801   -2.0353    2.4277 H   0  0  0  0  0  0  0  0  0  0  0  0
    3.7537   -0.7111    2.6889 H   0  0  0  0  0  0  0  0  0  0  0  0
  1  3  1  1  0  0  0
  1 11  1  0  0  0  0
  1  8  1  0  0  0  0
  2  6  1  0  0  0  0
  4  3  2  0  0  0  0
  5  4  1  0  0  0  0
  6 17  2  0  0  0  0
  6  3  1  0  0  0  0
  7  4  1  0  0  0  0
  8 15  2  0  0  0  0
  9  8  1  0  0  0  0
 10 12  1  0  0  0  0
 10 30  1  0  0  0  0
 11 24  1  0  0  0  0
 12 13  1  0  0  0  0
 14 12  1  0  0  0  0
 15 26  1  0  0  0  0
 15 16  1  0  0  0  0
 17 22  1  0  0  0  0
 18 17  1  0  0  0  0
 19 21  1  0  0  0  0
 19  7  1  0  0  0  0
 19 12  1  0  0  0  0
 20 19  1  0  0  0  0
 22 23  1  0  0  0  0
 22 11  2  0  0  0  0
 24 25  1  0  0  0  0
 24 26  2  0  0  0  0
 26 27  1  0  0  0  0
 28 33  1  0  0  0  0
 29 28  1  0  0  0  0
 30 32  1  0  0  0  0
 30 33  1  0  0  0  0
 31 30  1  0  0  0  0
 33 34  1  0  0  0  0
 33 35  1  0  0  0  0
M  CHG  1   2  -1
M  END
