1,2,3
 OpenBabel05122313063D

 29 31  0  0  1  0  0  0  0  0999 V2000
    0.0451   -0.2379   -1.4320 O   0  0  0  0  0  1  0  0  0  0  0  0
   -2.6709    1.2366    0.6682 N   0  0  0  0  0  0  0  0  0  0  0  0
   -0.7339    1.9916   -0.8172 N   0  0  0  0  0  2  0  0  0  0  0  0
   -2.6449    2.5852    0.3371 C   0  0  0  0  0  0  0  0  0  0  0  0
   -3.7529    3.2449    0.9201 C   0  0  0  0  0  0  0  0  0  0  0  0
   -3.9971    4.3106    0.8332 H   0  0  0  0  0  0  0  0  0  0  0  0
   -4.4676    2.2544    1.6278 C   0  0  0  0  0  0  0  0  0  0  0  0
   -5.3902    2.3881    2.2050 H   0  0  0  0  0  0  0  0  0  0  0  0
   -3.7710    1.0382    1.4388 C   0  0  0  0  0  3  0  0  0  0  0  0
   -4.0281    0.0366    1.8087 H   0  0  0  0  0  0  0  0  0  0  0  0
   -1.5617    2.9580   -0.5054 C   0  0  0  0  0  3  0  0  0  0  0  0
   -1.4368    3.9914   -0.8863 H   0  0  0  0  0  0  0  0  0  0  0  0
    0.4326    2.1028   -1.6518 C   0  0  1  0  0  0  0  0  0  0  0  0
    0.3124    2.9004   -2.4236 H   0  0  0  0  0  0  0  0  0  0  0  0
    1.7251    2.3114   -0.8759 C   0  0  0  0  0  0  0  0  0  0  0  0
    1.9788    3.2328    0.1463 C   0  0  0  0  0  0  0  0  0  0  0  0
    1.1843    3.9050    0.5061 H   0  0  0  0  0  0  0  0  0  0  0  0
    3.2606    3.2711    0.7203 C   0  0  0  0  0  0  0  0  0  0  0  0
    3.4789    3.9854    1.5288 H   0  0  0  0  0  0  0  0  0  0  0  0
    4.2676    2.3996    0.2650 C   0  0  0  0  0  0  0  0  0  0  0  0
    5.2707    2.4432    0.7168 H   0  0  0  0  0  0  0  0  0  0  0  0
    4.0004    1.4663   -0.7512 C   0  0  0  0  0  0  0  0  0  0  0  0
    4.7840    0.7737   -1.0927 H   0  0  0  0  0  0  0  0  0  0  0  0
    2.7163    1.4128   -1.3114 C   0  0  0  0  0  0  0  0  0  0  0  0
    2.1741    0.4834   -2.3706 C   0  0  0  0  0  0  0  0  0  0  0  0
    2.4303   -0.5794   -2.1832 H   0  0  0  0  0  0  0  0  0  0  0  0
    2.5616    0.7484   -3.3789 H   0  0  0  0  0  0  0  0  0  0  0  0
    0.6412    0.6874   -2.3002 C   0  0  1  0  0  0  0  0  0  0  0  0
    0.1631    0.6187   -3.3042 H   0  0  0  0  0  0  0  0  0  0  0  0
  2  9  1  0  0  0  0
  3 11  1  0  0  0  0
  4  2  2  0  0  0  0
  4  5  1  0  0  0  0
  5  7  2  0  0  0  0
  6  5  1  0  0  0  0
  7  8  1  0  0  0  0
  9  7  1  0  0  0  0
  9 10  1  0  0  0  0
 11  4  1  0  0  0  0
 12 11  1  0  0  0  0
 13 14  1  6  0  0  0
 13 15  1  0  0  0  0
 13  3  1  0  0  0  0
 15 16  1  0  0  0  0
 16 17  1  0  0  0  0
 16 18  2  0  0  0  0
 18 19  1  0  0  0  0
 20 21  1  0  0  0  0
 20 18  1  0  0  0  0
 22 20  2  0  0  0  0
 23 22  1  0  0  0  0
 24 15  2  0  0  0  0
 24 22  1  0  0  0  0
 25 28  1  0  0  0  0
 25 26  1  0  0  0  0
 25 24  1  0  0  0  0
 27 25  1  0  0  0  0
 28 29  1  6  0  0  0
 28 13  1  0  0  0  0
 28  1  1  0  0  0  0
M  END
