3,4,5
 OpenBabel05122313063D

 40 43  0  0  1  0  0  0  0  0999 V2000
   -1.7456   -3.0806    0.8162 Cl  0  0  0  0  0  0  0  0  0  0  0  0
   -5.2508    2.0427   -0.8090 O   0  0  0  0  0  0  0  0  0  0  0  0
   -0.6705   -0.6796   -0.0851 O   0  5  0  0  0  0  0  0  0  0  0  0
    0.7351    1.7311    0.4301 N   0  0  0  0  0  2  0  0  0  0  0  0
    3.2063    0.2746   -0.3415 N   0  0  0  0  0  2  0  0  0  0  0  0
   -3.0878   -2.0973    0.3028 C   0  0  0  0  0  0  0  0  0  0  0  0
   -4.3269   -2.7605    0.2343 C   0  0  0  0  0  0  0  0  0  0  0  0
   -5.4956   -2.0711   -0.1124 C   0  0  0  0  0  0  0  0  0  0  0  0
   -5.4370   -0.6978   -0.3624 C   0  0  0  0  0  0  0  0  0  0  0  0
   -4.2084   -0.0234   -0.2829 C   0  0  0  0  0  0  0  0  0  0  0  0
   -4.2155    1.4523   -0.4915 C   0  0  0  0  0  0  0  0  0  0  0  0
   -2.9406    2.1849   -0.2375 C   0  0  2  0  0  3  0  0  0  0  0  0
   -3.0225    3.5753   -0.2203 C   0  0  0  0  0  0  0  0  0  0  0  0
   -1.8642    4.3307    0.0468 C   0  0  0  0  0  0  0  0  0  0  0  0
   -0.6504    3.7049    0.2723 C   0  0  0  0  0  0  0  0  0  0  0  0
   -0.4867    2.2704    0.2214 C   0  0  0  0  0  0  0  0  0  0  0  0
   -1.7017    1.4906   -0.0261 C   0  0  0  0  0  0  0  0  0  0  0  0
   -1.7126    0.0466   -0.0263 C   0  0  0  0  0  0  0  0  0  0  0  0
   -2.9966   -0.7037    0.0178 C   0  0  0  0  0  0  0  0  0  0  0  0
    1.7908    2.5781    0.9620 C   0  0  0  0  0  0  0  0  0  0  0  0
    2.9625    1.7820    1.5550 C   0  0  0  0  0  0  0  0  0  0  0  0
    3.8229    1.1252    0.5159 C   0  0  2  0  0  3  0  0  0  0  0  0
    5.2016    1.3693    0.4011 C   0  0  0  0  0  0  0  0  0  0  0  0
    5.9420    0.7352   -0.6037 C   0  0  0  0  0  0  0  0  0  0  0  0
    5.2817   -0.1385   -1.4787 C   0  0  0  0  0  0  0  0  0  0  0  0
    3.9111   -0.3498   -1.3146 C   0  0  0  0  0  0  0  0  0  0  0  0
   -4.3517   -3.8346    0.4659 H   0  0  0  0  0  0  0  0  0  0  0  0
   -6.4517   -2.6127   -0.1687 H   0  0  0  0  0  0  0  0  0  0  0  0
   -6.3264   -0.1025   -0.6141 H   0  0  0  0  0  0  0  0  0  0  0  0
   -3.9994    4.0383   -0.4161 H   0  0  0  0  0  0  0  0  0  0  0  0
   -1.9145    5.4304    0.0644 H   0  0  0  0  0  0  0  0  0  0  0  0
    0.2317    4.3315    0.4478 H   0  0  0  0  0  0  0  0  0  0  0  0
    1.3800    3.2062    1.7824 H   0  0  0  0  0  0  0  0  0  0  0  0
    2.1863    3.2833    0.1901 H   0  0  0  0  0  0  0  0  0  0  0  0
    2.5589    1.0000    2.2350 H   0  0  0  0  0  0  0  0  0  0  0  0
    3.5872    2.4666    2.1608 H   0  0  0  0  0  0  0  0  0  0  0  0
    5.6825    2.0562    1.1121 H   0  0  0  0  0  0  0  0  0  0  0  0
    7.0222    0.9199   -0.7010 H   0  0  0  0  0  0  0  0  0  0  0  0
    5.8169   -0.6632   -2.2823 H   0  0  0  0  0  0  0  0  0  0  0  0
    3.3347   -1.0544   -1.9317 H   0  0  0  0  0  0  0  0  0  0  0  0
  2 11  2  0  0  0  0
  3 18  1  0  0  0  0
  4 20  1  0  0  0  0
  5 22  1  0  0  0  0
  6  1  1  0  0  0  0
  7  6  1  0  0  0  0
  7 27  1  0  0  0  0
  8  7  2  0  0  0  0
  9 10  2  0  0  0  0
  9  8  1  0  0  0  0
 10 19  1  0  0  0  0
 11 10  1  0  0  0  0
 12 11  1  6  0  0  0
 12 13  1  0  0  0  0
 12 17  1  0  0  0  0
 13 14  2  0  0  0  0
 14 31  1  0  0  0  0
 14 15  1  0  0  0  0
 15 32  1  0  0  0  0
 16 15  2  0  0  0  0
 16  4  1  0  0  0  0
 17 16  1  0  0  0  0
 18 17  2  0  0  0  0
 18 19  1  0  0  0  0
 19  6  2  0  0  0  0
 20 21  1  0  0  0  0
 20 33  1  0  0  0  0
 21 36  1  0  0  0  0
 21 35  1  0  0  0  0
 22 21  1  6  0  0  0
 23 22  1  0  0  0  0
 23 37  1  0  0  0  0
 24 23  2  0  0  0  0
 25 26  2  0  0  0  0
 25 24  1  0  0  0  0
 26  5  1  0  0  0  0
 28  8  1  0  0  0  0
 29  9  1  0  0  0  0
 30 13  1  0  0  0  0
 34 20  1  0  0  0  0
 38 24  1  0  0  0  0
 39 25  1  0  0  0  0
 40 26  1  0  0  0  0
M  CHG  1   3  -1
M  END
