2,3,5
 OpenBabel05122313063D

 29 29  0  0  1  0  0  0  0  0999 V2000
    3.3786   -2.3694   -0.3334 S   0  0  0  0  0  0  0  0  0  0  0  0
   -1.7825    0.8794    0.0447 O   0  0  0  0  0  1  0  0  0  0  0  0
   -0.3479   -1.4689    0.0083 N   0  0  0  0  0  2  0  0  0  0  0  0
    0.7801   -2.2492    0.0140 N   0  0  0  0  0  0  0  0  0  0  0  0
    1.7434   -0.1467   -0.1292 N   0  0  0  0  0  2  0  0  0  0  0  0
    2.5293    0.3931   -0.5028 H   0  0  0  0  0  0  0  0  0  0  0  0
   -2.8378    0.1000    0.0610 C   0  0  2  0  0  3  0  0  0  0  0  0
   -4.1133    0.7385    0.0641 C   0  0  0  0  0  0  0  0  0  0  0  0
   -4.1160    1.8385    0.0530 H   0  0  0  0  0  0  0  0  0  0  0  0
   -5.2957    0.0083    0.0918 C   0  0  0  0  0  0  0  0  0  0  0  0
   -6.2629    0.5347    0.0981 H   0  0  0  0  0  0  0  0  0  0  0  0
   -5.2538   -1.4038    0.1142 C   0  0  0  0  0  0  0  0  0  0  0  0
   -6.1838   -1.9905    0.1367 H   0  0  0  0  0  0  0  0  0  0  0  0
   -4.0220   -2.0499    0.1070 C   0  0  0  0  0  0  0  0  0  0  0  0
   -4.0045   -3.1477    0.1219 H   0  0  0  0  0  0  0  0  0  0  0  0
   -2.7838   -1.3410    0.0787 C   0  0  0  0  0  0  0  0  0  0  0  0
   -1.5354   -2.0786    0.0566 C   0  0  0  0  0  0  0  0  0  0  0  0
   -1.5673   -3.5858    0.0811 C   0  0  0  0  0  0  0  0  0  0  0  0
   -0.5364   -3.9751    0.0828 H   0  0  0  0  0  0  0  0  0  0  0  0
   -2.1075   -3.9801   -0.8037 H   0  0  0  0  0  0  0  0  0  0  0  0
   -2.1013   -3.9504    0.9819 H   0  0  0  0  0  0  0  0  0  0  0  0
    1.8495   -1.4898   -0.1387 C   0  0  0  0  0  0  0  0  0  0  0  0
    4.6031   -1.0580    0.0560 C   0  0  0  0  0  0  0  0  0  0  0  0
    4.6180   -0.3069   -0.7631 H   0  0  0  0  0  0  0  0  0  0  0  0
    4.2777   -0.5477    0.9859 H   0  0  0  0  0  0  0  0  0  0  0  0
    5.9822   -1.6897    0.2183 C   0  0  0  0  0  0  0  0  0  0  0  0
    6.7386   -0.9102    0.4403 H   0  0  0  0  0  0  0  0  0  0  0  0
    6.2979   -2.2139   -0.7064 H   0  0  0  0  0  0  0  0  0  0  0  0
    5.9904   -2.4256    1.0468 H   0  0  0  0  0  0  0  0  0  0  0  0
  1 22  1  0  0  0  0
  1 23  1  0  0  0  0
  3  4  1  0  0  0  0
  3 17  1  0  0  0  0
  6  5  1  0  0  0  0
  7  2  1  1  0  0  0
  7  8  1  0  0  0  0
  7 16  1  0  0  0  0
  8 10  2  0  0  0  0
  9  8  1  0  0  0  0
 10 11  1  0  0  0  0
 10 12  1  0  0  0  0
 12 13  1  0  0  0  0
 14 12  2  0  0  0  0
 14 15  1  0  0  0  0
 16 14  1  0  0  0  0
 17 16  2  0  0  0  0
 17 18  1  0  0  0  0
 18 19  1  0  0  0  0
 18 21  1  0  0  0  0
 20 18  1  0  0  0  0
 22  5  1  0  0  0  0
 22  4  2  0  0  0  0
 23 26  1  0  0  0  0
 23 25  1  0  0  0  0
 24 23  1  0  0  0  0
 26 27  1  0  0  0  0
 26 29  1  0  0  0  0
 28 26  1  0  0  0  0
M  END
