2,4,5
 OpenBabel05122313063D

 26 28  0  0  0  0  0  0  0  0999 V2000
   -1.1763    2.8313   -3.1721 S   0  0  0  0  0  0  0  0  0  0  0  0
   -1.8180    0.1406   -0.5031 N   0  0  0  0  0  2  0  0  0  0  0  0
   -2.2153    0.9431   -1.4573 N   0  0  0  0  0  0  0  0  0  0  0  0
    0.0920    1.4850   -1.3767 N   0  0  0  0  0  2  0  0  0  0  0  0
   -0.5182   -1.2030    1.2488 O   0  5  0  0  0  0  0  0  0  0  0  0
   -4.5756   -2.0221    0.8608 C   0  0  0  0  0  0  0  0  0  0  0  0
   -5.9544   -2.3243    0.7520 C   0  0  0  0  0  0  0  0  0  0  0  0
   -6.3809   -3.0984    1.4080 H   0  0  0  0  0  0  0  0  0  0  0  0
   -6.7629   -1.6571   -0.1698 C   0  0  0  0  0  0  0  0  0  0  0  0
   -7.8323   -1.9019   -0.2451 H   0  0  0  0  0  0  0  0  0  0  0  0
   -6.2010   -0.6711   -1.0038 C   0  0  0  0  0  0  0  0  0  0  0  0
   -6.8354   -0.1457   -1.7332 H   0  0  0  0  0  0  0  0  0  0  0  0
   -4.8417   -0.3486   -0.9213 C   0  0  0  0  0  0  0  0  0  0  0  0
   -4.4104    0.4176   -1.5761 H   0  0  0  0  0  0  0  0  0  0  0  0
   -4.0051   -1.0127    0.0080 C   0  0  0  0  0  0  0  0  0  0  0  0
   -2.5896   -0.7503    0.1693 C   0  0  0  0  0  0  0  0  0  0  0  0
   -1.7812   -1.4719    1.1393 C   0  0  0  0  0  0  0  0  0  0  0  0
   -2.4005   -2.4662    1.9597 C   0  0  0  0  0  0  0  0  0  0  0  0
   -1.7782   -3.0056    2.6866 H   0  0  0  0  0  0  0  0  0  0  0  0
   -3.7468   -2.7169    1.8116 C   0  0  0  0  0  0  0  0  0  0  0  0
   -4.2245   -3.4834    2.4420 H   0  0  0  0  0  0  0  0  0  0  0  0
   -1.1439    1.6492   -1.9021 C   0  0  0  0  0  0  0  0  0  0  0  0
    0.5321    3.0894   -2.9640 C   0  0  0  0  0  0  0  0  0  0  0  0
    1.0688    3.8131   -3.5880 H   0  0  0  0  0  0  0  0  0  0  0  0
    1.0347    2.2848   -1.9642 C   0  0  0  0  0  0  0  0  0  0  0  0
    2.0790    2.2453   -1.6284 H   0  0  0  0  0  0  0  0  0  0  0  0
  1 23  1  0  0  0  0
  1 22  1  0  0  0  0
  2 16  1  0  0  0  0
  3  2  1  0  0  0  0
  6 20  1  0  0  0  0
  7  6  1  0  0  0  0
  7  8  1  0  0  0  0
  9  7  2  0  0  0  0
 10  9  1  0  0  0  0
 11 13  2  0  0  0  0
 11  9  1  0  0  0  0
 12 11  1  0  0  0  0
 13 15  1  0  0  0  0
 14 13  1  0  0  0  0
 15 16  1  0  0  0  0
 15  6  2  0  0  0  0
 16 17  2  0  0  0  0
 17  5  1  0  0  0  0
 17 18  1  0  0  0  0
 18 19  1  0  0  0  0
 20 18  2  0  0  0  0
 20 21  1  0  0  0  0
 22  3  2  0  0  0  0
 22  4  1  0  0  0  0
 23 25  2  0  0  0  0
 24 23  1  0  0  0  0
 25 26  1  0  0  0  0
 25  4  1  0  0  0  0
M  CHG  1   5  -1
M  END
