1,2,3
 OpenBabel05122313063D

 56 57  0  0  1  0  0  0  0  0999 V2000
    0.3335    0.3229   -0.9114 O   0  0  0  0  0  1  0  0  0  0  0  0
    0.6532   -1.2994    1.0743 N   0  0  0  0  0  2  0  0  0  0  0  0
   -0.8734    0.9083    1.5777 N   0  0  0  0  0  2  0  0  0  0  0  0
    1.3079   -0.0082    1.2313 C   0  0  2  0  0  0  0  0  0  0  0  0
    2.2713   -0.0645    1.7788 H   0  0  0  0  0  0  0  0  0  0  0  0
    0.3714    0.9753    1.8937 C   0  0  0  0  0  3  0  0  0  0  0  0
    0.7750    1.7599    2.5622 H   0  0  0  0  0  0  0  0  0  0  0  0
    1.0799   -2.4005    1.9614 C   0  0  0  0  0  0  0  0  0  0  0  0
    0.2342   -3.6357    1.6092 C   0  0  0  0  0  0  0  0  0  0  0  0
   -0.8463   -3.4362    1.7651 H   0  0  0  0  0  0  0  0  0  0  0  0
    0.5148   -4.4932    2.2525 H   0  0  0  0  0  0  0  0  0  0  0  0
    0.3873   -3.9273    0.5517 H   0  0  0  0  0  0  0  0  0  0  0  0
    0.8312   -2.0195    3.4368 C   0  0  0  0  0  0  0  0  0  0  0  0
   -0.2417   -1.7892    3.5951 H   0  0  0  0  0  0  0  0  0  0  0  0
    1.4248   -1.1300    3.7346 H   0  0  0  0  0  0  0  0  0  0  0  0
    1.1171   -2.8493    4.1149 H   0  0  0  0  0  0  0  0  0  0  0  0
    2.5683   -2.7343    1.7314 C   0  0  0  0  0  0  0  0  0  0  0  0
    2.7456   -2.9964    0.6701 H   0  0  0  0  0  0  0  0  0  0  0  0
    2.8737   -3.5905    2.3667 H   0  0  0  0  0  0  0  0  0  0  0  0
    3.2342   -1.8841    1.9826 H   0  0  0  0  0  0  0  0  0  0  0  0
   -1.8568    1.8680    2.1536 C   0  0  0  0  0  0  0  0  0  0  0  0
   -2.9695    2.0741    1.1137 C   0  0  0  0  0  0  0  0  0  0  0  0
   -2.5638    2.5260    0.1869 H   0  0  0  0  0  0  0  0  0  0  0  0
   -3.7454    2.7528    1.5196 H   0  0  0  0  0  0  0  0  0  0  0  0
   -3.4450    1.1068    0.8653 H   0  0  0  0  0  0  0  0  0  0  0  0
   -2.4380    1.2096    3.4205 C   0  0  0  0  0  0  0  0  0  0  0  0
   -1.6431    1.0614    4.1794 H   0  0  0  0  0  0  0  0  0  0  0  0
   -2.8782    0.2240    3.1753 H   0  0  0  0  0  0  0  0  0  0  0  0
   -3.2241    1.8567    3.8589 H   0  0  0  0  0  0  0  0  0  0  0  0
   -1.2238    3.2289    2.4950 C   0  0  0  0  0  0  0  0  0  0  0  0
   -0.5070    3.1664    3.3379 H   0  0  0  0  0  0  0  0  0  0  0  0
   -2.0182    3.9372    2.8014 H   0  0  0  0  0  0  0  0  0  0  0  0
   -0.6957    3.6560    1.6179 H   0  0  0  0  0  0  0  0  0  0  0  0
    1.5516    0.5492   -0.2560 C   0  0  0  0  0  0  0  0  0  0  0  0
    2.6835   -0.2758   -0.8951 C   0  0  0  0  0  0  0  0  0  0  0  0
    2.3751   -1.3045   -1.8036 C   0  0  0  0  0  0  0  0  0  0  0  0
    1.3293   -1.4791   -2.0873 H   0  0  0  0  0  0  0  0  0  0  0  0
    3.3893   -2.1205   -2.3293 C   0  0  0  0  0  0  0  0  0  0  0  0
    3.1234   -2.9248   -3.0324 H   0  0  0  0  0  0  0  0  0  0  0  0
    4.7269   -1.9202   -1.9580 C   0  0  0  0  0  0  0  0  0  0  0  0
    5.5212   -2.5625   -2.3681 H   0  0  0  0  0  0  0  0  0  0  0  0
    5.0443   -0.8875   -1.0612 C   0  0  0  0  0  0  0  0  0  0  0  0
    6.0907   -0.7116   -0.7678 H   0  0  0  0  0  0  0  0  0  0  0  0
    4.0311   -0.0714   -0.5380 C   0  0  0  0  0  0  0  0  0  0  0  0
    4.3033    0.7387    0.1537 H   0  0  0  0  0  0  0  0  0  0  0  0
    1.8808    2.0492   -0.2565 C   0  0  0  0  0  0  0  0  0  0  0  0
    2.6909    2.6541    0.7273 C   0  0  0  0  0  0  0  0  0  0  0  0
    3.1156    2.0512    1.5442 H   0  0  0  0  0  0  0  0  0  0  0  0
    2.9550    4.0326    0.6973 C   0  0  0  0  0  0  0  0  0  0  0  0
    3.5832    4.4836    1.4806 H   0  0  0  0  0  0  0  0  0  0  0  0
    2.4169    4.8324   -0.3220 C   0  0  0  0  0  0  0  0  0  0  0  0
    2.6211    5.9136   -0.3451 H   0  0  0  0  0  0  0  0  0  0  0  0
    1.6149    4.2396   -1.3102 C   0  0  0  0  0  0  0  0  0  0  0  0
    1.1893    4.8566   -2.1168 H   0  0  0  0  0  0  0  0  0  0  0  0
    1.3504    2.8629   -1.2750 C   0  0  0  0  0  0  0  0  0  0  0  0
    0.7163    2.3919   -2.0373 H   0  0  0  0  0  0  0  0  0  0  0  0
  1 34  1  0  0  0  0
  2  4  1  0  0  0  0
  2  8  1  0  0  0  0
  3  6  1  0  0  0  0
  3 21  1  0  0  0  0
  4  5  1  1  0  0  0
  4  6  1  0  0  0  0
  6  7  1  0  0  0  0
  8 13  1  0  0  0  0
  9 10  1  0  0  0  0
  9  8  1  0  0  0  0
  9 11  1  0  0  0  0
 12  9  1  0  0  0  0
 13 14  1  0  0  0  0
 13 15  1  0  0  0  0
 13 16  1  0  0  0  0
 17  8  1  0  0  0  0
 17 20  1  0  0  0  0
 17 19  1  0  0  0  0
 18 17  1  0  0  0  0
 21 30  1  0  0  0  0
 21 26  1  0  0  0  0
 22 24  1  0  0  0  0
 22 21  1  0  0  0  0
 23 22  1  0  0  0  0
 25 22  1  0  0  0  0
 26 29  1  0  0  0  0
 26 27  1  0  0  0  0
 28 26  1  0  0  0  0
 30 32  1  0  0  0  0
 30 31  1  0  0  0  0
 33 30  1  0  0  0  0
 34  4  1  0  0  0  0
 35 44  1  0  0  0  0
 35 34  1  0  0  0  0
 36 35  2  0  0  0  0
 37 36  1  0  0  0  0
 38 40  2  0  0  0  0
 38 36  1  0  0  0  0
 39 38  1  0  0  0  0
 40 42  1  0  0  0  0
 41 40  1  0  0  0  0
 42 43  1  0  0  0  0
 42 44  2  0  0  0  0
 44 45  1  0  0  0  0
 46 34  1  0  0  0  0
 46 47  1  0  0  0  0
 47 48  1  0  0  0  0
 49 47  2  0  0  0  0
 49 50  1  0  0  0  0
 51 49  1  0  0  0  0
 52 51  1  0  0  0  0
 53 55  1  0  0  0  0
 53 51  2  0  0  0  0
 54 53  1  0  0  0  0
 55 46  2  0  0  0  0
 56 55  1  0  0  0  0
M  END
