1,2,4
 OpenBabel05122313063D

 30 31  0  0  0  0  0  0  0  0999 V2000
    0.6334   -0.6701   -0.9095 O   0  5  0  0  0  0  0  0  0  0  0  0
   -0.6370    1.7257   -0.4962 N   0  0  0  0  0  2  0  0  0  0  0  0
   -0.0713    2.6935    0.2671 N   0  0  0  0  0  0  0  0  0  0  0  0
    0.5747   -0.0374    1.7771 N   0  0  0  0  0  0  0  0  0  0  0  0
   -0.7789    2.2388   -1.7333 C   0  0  0  0  0  3  0  0  0  0  0  0
   -1.2306    1.6114   -2.5103 H   0  0  0  0  0  0  0  0  0  0  0  0
   -0.2988    3.5645   -1.7651 C   0  0  0  0  0  0  0  0  0  0  0  0
   -0.2802    4.2507   -2.6170 H   0  0  0  0  0  0  0  0  0  0  0  0
    0.1381    3.8243   -0.4658 C   0  0  0  0  0  0  0  0  0  0  0  0
    0.5639    4.7234   -0.0076 H   0  0  0  0  0  0  0  0  0  0  0  0
    0.2234    2.4554    1.6740 C   0  0  0  0  0  0  0  0  0  0  0  0
   -0.7299    2.2778    2.2139 H   0  0  0  0  0  0  0  0  0  0  0  0
    0.6729    3.3897    2.0597 H   0  0  0  0  0  0  0  0  0  0  0  0
    1.1999    1.2980    1.9039 C   0  0  0  0  0  0  0  0  0  0  0  0
    2.0249    1.3538    1.1652 H   0  0  0  0  0  0  0  0  0  0  0  0
    1.6577    1.4152    2.9129 H   0  0  0  0  0  0  0  0  0  0  0  0
    1.5818   -1.1393    1.7257 C   0  0  0  0  0  0  0  0  0  0  0  0
    0.9903   -2.0767    1.6543 H   0  0  0  0  0  0  0  0  0  0  0  0
    2.1730   -1.1642    2.6683 H   0  0  0  0  0  0  0  0  0  0  0  0
    2.5079   -0.9887    0.5494 C   0  0  0  0  0  0  0  0  0  0  0  0
    3.9035   -1.0738    0.6897 C   0  0  0  0  0  0  0  0  0  0  0  0
    4.3260   -1.2431    1.6943 H   0  0  0  0  0  0  0  0  0  0  0  0
    4.7571   -0.9557   -0.4173 C   0  0  0  0  0  0  0  0  0  0  0  0
    5.8467   -1.0325   -0.2889 H   0  0  0  0  0  0  0  0  0  0  0  0
    4.1996   -0.7343   -1.6898 C   0  0  0  0  0  0  0  0  0  0  0  0
    4.8570   -0.6363   -2.5679 H   0  0  0  0  0  0  0  0  0  0  0  0
    2.8145   -0.6315   -1.8534 C   0  0  0  0  0  0  0  0  0  0  0  0
    2.3626   -0.4565   -2.8407 H   0  0  0  0  0  0  0  0  0  0  0  0
    1.9431   -0.7599   -0.7415 C   0  0  0  0  0  0  0  0  0  0  0  0
   -0.0269   -0.1953    2.5978 H   0  0  0  0  0  0  0  0  0  0  0  0
  1 29  1  0  0  0  0
  2  3  1  0  0  0  0
  3 11  1  0  0  0  0
  4 14  1  0  0  0  0
  4 30  1  0  0  0  0
  5  2  1  0  0  0  0
  6  5  1  0  0  0  0
  7  5  1  0  0  0  0
  7  9  2  0  0  0  0
  8  7  1  0  0  0  0
  9 10  1  0  0  0  0
  9  3  1  0  0  0  0
 11 14  1  0  0  0  0
 11 13  1  0  0  0  0
 11 12  1  0  0  0  0
 14 16  1  0  0  0  0
 15 14  1  0  0  0  0
 17  4  1  0  0  0  0
 17 19  1  0  0  0  0
 18 17  1  0  0  0  0
 20 21  1  0  0  0  0
 20 17  1  0  0  0  0
 21 22  1  0  0  0  0
 23 24  1  0  0  0  0
 23 21  2  0  0  0  0
 25 23  1  0  0  0  0
 26 25  1  0  0  0  0
 27 25  2  0  0  0  0
 27 29  1  0  0  0  0
 28 27  1  0  0  0  0
 29 20  2  0  0  0  0
M  CHG  1   1  -1
M  END
