1,7,13
 OpenBabel05122313063D

 29 30  0  0  0  0  0  0  0  0999 V2000
   -1.4258    0.3922   -1.5123 N   0  0  0  0  0  2  0  0  0  0  0  0
   -2.2020    1.6439   -3.5095 C   0  0  0  0  0  0  0  0  0  0  0  0
   -3.1130    1.0384   -3.3527 H   0  0  0  0  0  0  0  0  0  0  0  0
   -1.8063    1.4386   -4.5263 H   0  0  0  0  0  0  0  0  0  0  0  0
   -2.4726    2.7202   -3.4762 H   0  0  0  0  0  0  0  0  0  0  0  0
   -1.2026    1.2908   -2.4502 C   0  0  0  0  0  0  0  0  0  0  0  0
   -1.5668   -1.2933    0.4272 O   0  5  0  0  0  0  0  0  0  0  0  0
    0.1150    1.9301   -2.3800 C   0  0  0  0  0  0  0  0  0  0  0  0
   -2.5515   -1.1307   -0.3558 C   0  0  0  0  0  0  0  0  0  0  0  0
   -5.0050   -3.5775    1.1776 C   0  0  0  0  0  0  0  0  0  0  0  0
   -5.0409   -4.2813    2.0232 H   0  0  0  0  0  0  0  0  0  0  0  0
   -2.5814   -0.2569   -1.4145 N   0  0  0  0  0  0  0  0  0  0  0  0
    0.9357    1.5825   -1.3529 N   0  0  0  0  0  2  0  0  0  0  0  0
    0.5722    2.8889   -3.3234 C   0  0  0  0  0  0  0  0  0  0  0  0
   -0.0756    3.2005   -4.1601 H   0  0  0  0  0  0  0  0  0  0  0  0
   -3.8484   -2.8237    0.9446 C   0  0  0  0  0  0  0  0  0  0  0  0
   -2.9619   -2.9149    1.5886 H   0  0  0  0  0  0  0  0  0  0  0  0
   -4.9159   -1.7840   -0.9854 C   0  0  0  0  0  0  0  0  0  0  0  0
   -4.8555   -1.0778   -1.8248 H   0  0  0  0  0  0  0  0  0  0  0  0
   -3.7949   -1.9203   -0.1380 C   0  0  0  0  0  0  0  0  0  0  0  0
    1.7826    3.4501   -3.2527 N   0  0  0  0  0  0  0  0  0  0  0  0
    2.5770    3.0724   -2.2367 C   0  0  0  0  0  0  0  0  0  0  0  0
    3.5814    3.5245   -2.1758 H   0  0  0  0  0  0  0  0  0  0  0  0
   -6.1188   -3.4370    0.3321 C   0  0  0  0  0  0  0  0  0  0  0  0
   -7.0279   -4.0303    0.5153 H   0  0  0  0  0  0  0  0  0  0  0  0
   -6.0710   -2.5396   -0.7488 C   0  0  0  0  0  0  0  0  0  0  0  0
   -6.9427   -2.4309   -1.4122 H   0  0  0  0  0  0  0  0  0  0  0  0
    2.1485    2.1356   -1.2795 C   0  0  0  0  0  0  0  0  0  0  0  0
    2.7908    1.8205   -0.4384 H   0  0  0  0  0  0  0  0  0  0  0  0
  1 12  1  0  0  0  0
  2  5  1  0  0  0  0
  2  3  1  0  0  0  0
  2  6  1  0  0  0  0
  4  2  1  0  0  0  0
  6  8  2  0  0  0  0
  6  1  1  0  0  0  0
  8 13  1  0  0  0  0
  9 20  1  0  0  0  0
  9  7  1  0  0  0  0
 10 11  1  0  0  0  0
 12  9  2  0  0  0  0
 13 28  1  0  0  0  0
 14 21  2  0  0  0  0
 14  8  1  0  0  0  0
 15 14  1  0  0  0  0
 16 10  1  0  0  0  0
 16 17  1  0  0  0  0
 18 26  2  0  0  0  0
 18 20  1  0  0  0  0
 19 18  1  0  0  0  0
 20 16  2  0  0  0  0
 21 22  1  0  0  0  0
 22 23  1  0  0  0  0
 22 28  2  0  0  0  0
 24 25  1  0  0  0  0
 24 10  2  0  0  0  0
 26 24  1  0  0  0  0
 27 26  1  0  0  0  0
 28 29  1  0  0  0  0
M  CHG  1   7  -1
M  END
