4,5,9
 OpenBabel05122313063D

 56 59  0  0  1  0  0  0  0  0999 V2000
   -0.1525    2.9400    2.3321 O   0  0  0  0  0  0  0  0  0  0  0  0
    0.3526    3.3061    3.0816 H   0  0  0  0  0  0  0  0  0  0  0  0
    2.6479    1.4142    0.5993 O   0  0  0  0  0  0  0  0  0  0  0  0
   -0.9027   -2.3273   -0.1249 O   0  5  0  0  0  0  0  0  0  0  0  0
   -1.3665    0.3482    1.2160 N   0  0  0  0  0  0  0  0  0  0  0  0
   -2.5152    1.2158    1.6377 C   0  0  0  0  0  0  0  0  0  0  0  0
   -3.2023    0.5567    2.2114 H   0  0  0  0  0  0  0  0  0  0  0  0
   -2.1625    2.0375    2.2904 H   0  0  0  0  0  0  0  0  0  0  0  0
   -3.3097    0.8341   -0.6096 N   0  0  0  0  0  2  0  0  0  0  0  0
   -0.2106    1.1517    0.7108 C   0  0  0  0  0  0  0  0  0  0  0  0
   -0.6136    1.8739   -0.0279 H   0  0  0  0  0  0  0  0  0  0  0  0
    0.4634    0.4590    0.1743 H   0  0  0  0  0  0  0  0  0  0  0  0
    0.0657   -2.3555    0.7743 C   0  0  0  0  0  0  0  0  0  0  0  0
   -3.2405    1.7287    0.4286 C   0  0  1  0  0  3  0  0  0  0  0  0
   -4.0170    1.1548   -1.7248 C   0  0  0  0  0  0  0  0  0  0  0  0
   -4.0308    0.3683   -2.4966 H   0  0  0  0  0  0  0  0  0  0  0  0
   -4.6694    2.3828   -1.8444 C   0  0  0  0  0  0  0  0  0  0  0  0
   -5.2353    2.5991   -2.7617 H   0  0  0  0  0  0  0  0  0  0  0  0
   -4.5807    3.3214   -0.8038 C   0  0  0  0  0  0  0  0  0  0  0  0
   -5.0715    4.3021   -0.8852 H   0  0  0  0  0  0  0  0  0  0  0  0
   -3.8485    2.9841    0.3448 C   0  0  0  0  0  0  0  0  0  0  0  0
   -3.7475    3.6849    1.1857 H   0  0  0  0  0  0  0  0  0  0  0  0
    0.6259    1.8980    1.7482 C   0  0  1  0  0  0  0  0  0  0  0  0
    0.9853    1.1736    2.5142 H   0  0  0  0  0  0  0  0  0  0  0  0
    1.8683    2.4904    1.0701 C   0  0  0  0  0  0  0  0  0  0  0  0
    1.5630    3.1693    0.2392 H   0  0  0  0  0  0  0  0  0  0  0  0
    2.4355    3.1031    1.8124 H   0  0  0  0  0  0  0  0  0  0  0  0
    3.7981    1.6668   -0.0934 C   0  0  0  0  0  0  0  0  0  0  0  0
    4.4678    0.4990   -0.5967 C   0  0  0  0  0  0  0  0  0  0  0  0
    5.6874    0.6781   -1.3425 C   0  0  0  0  0  0  0  0  0  0  0  0
    4.3116    2.9407   -0.3178 C   0  0  0  0  0  0  0  0  0  0  0  0
    3.7978    3.8326    0.0651 H   0  0  0  0  0  0  0  0  0  0  0  0
    6.3461   -0.4802   -1.8492 C   0  0  0  0  0  0  0  0  0  0  0  0
    7.2783   -0.3470   -2.4202 H   0  0  0  0  0  0  0  0  0  0  0  0
    5.8272   -1.7491   -1.6342 C   0  0  0  0  0  0  0  0  0  0  0  0
    6.3477   -2.6314   -2.0370 H   0  0  0  0  0  0  0  0  0  0  0  0
    4.6255   -1.9153   -0.8974 C   0  0  0  0  0  0  0  0  0  0  0  0
    4.2142   -2.9217   -0.7299 H   0  0  0  0  0  0  0  0  0  0  0  0
    3.9572   -0.8125   -0.3840 C   0  0  0  0  0  0  0  0  0  0  0  0
    3.0317   -0.9472    0.1923 H   0  0  0  0  0  0  0  0  0  0  0  0
   -0.9887   -0.6040    2.3090 C   0  0  0  0  0  0  0  0  0  0  0  0
   -1.9194   -1.1736    2.5239 H   0  0  0  0  0  0  0  0  0  0  0  0
   -0.7303   -0.0291    3.2255 H   0  0  0  0  0  0  0  0  0  0  0  0
    0.1398   -1.5234    1.9413 C   0  0  0  0  0  0  0  0  0  0  0  0
    1.1132   -3.3027    0.5728 C   0  0  0  0  0  0  0  0  0  0  0  0
    1.0365   -3.9440   -0.3172 H   0  0  0  0  0  0  0  0  0  0  0  0
    2.1817   -3.4105    1.4621 C   0  0  0  0  0  0  0  0  0  0  0  0
    2.9694   -4.1568    1.2734 H   0  0  0  0  0  0  0  0  0  0  0  0
    2.2691   -2.5676    2.5880 C   0  0  0  0  0  0  0  0  0  0  0  0
    3.1193   -2.6382    3.2810 H   0  0  0  0  0  0  0  0  0  0  0  0
    1.2460   -1.6401    2.8089 C   0  0  0  0  0  0  0  0  0  0  0  0
    1.2843   -0.9903    3.7000 H   0  0  0  0  0  0  0  0  0  0  0  0
    6.1945    1.9960   -1.5555 C   0  0  0  0  0  0  0  0  0  0  0  0
    7.1268    2.1223   -2.1262 H   0  0  0  0  0  0  0  0  0  0  0  0
    5.5188    3.0945   -1.0532 C   0  0  0  0  0  0  0  0  0  0  0  0
    5.9112    4.1089   -1.2209 H   0  0  0  0  0  0  0  0  0  0  0  0
  1  2  1  0  0  0  0
  3 25  1  0  0  0  0
  4 13  1  0  0  0  0
  5  6  1  0  0  0  0
  5 41  1  0  0  0  0
  6  7  1  0  0  0  0
  6  8  1  0  0  0  0
  9 14  1  0  0  0  0
 10  5  1  0  0  0  0
 10 23  1  0  0  0  0
 11 10  1  0  0  0  0
 12 10  1  0  0  0  0
 13 44  1  0  0  0  0
 14  6  1  1  0  0  0
 15  9  1  0  0  0  0
 16 15  1  0  0  0  0
 17 15  2  0  0  0  0
 17 19  1  0  0  0  0
 18 17  1  0  0  0  0
 19 21  2  0  0  0  0
 20 19  1  0  0  0  0
 21 14  1  0  0  0  0
 21 22  1  0  0  0  0
 23  1  1  0  0  0  0
 23 24  1  1  0  0  0
 25 23  1  0  0  0  0
 25 27  1  0  0  0  0
 26 25  1  0  0  0  0
 28  3  1  0  0  0  0
 29 39  1  0  0  0  0
 29 28  2  0  0  0  0
 30 29  1  0  0  0  0
 31 28  1  0  0  0  0
 31 32  1  0  0  0  0
 33 35  2  0  0  0  0
 33 30  1  0  0  0  0
 34 33  1  0  0  0  0
 35 37  1  0  0  0  0
 36 35  1  0  0  0  0
 37 38  1  0  0  0  0
 37 39  2  0  0  0  0
 39 40  1  0  0  0  0
 41 42  1  0  0  0  0
 41 43  1  0  0  0  0
 44 41  1  0  0  0  0
 44 51  2  0  0  0  0
 45 13  2  0  0  0  0
 45 47  1  0  0  0  0
 46 45  1  0  0  0  0
 47 49  2  0  0  0  0
 48 47  1  0  0  0  0
 49 51  1  0  0  0  0
 49 50  1  0  0  0  0
 51 52  1  0  0  0  0
 53 30  2  0  0  0  0
 53 55  1  0  0  0  0
 54 53  1  0  0  0  0
 55 31  2  0  0  0  0
 56 55  1  0  0  0  0
M  CHG  1   4  -1
M  END
