1,3,4
 OpenBabel05122313063D

 23 24  0  0  0  0  0  0  0  0999 V2000
   -0.5778    0.8672    0.0001 N   0  0  0  0  0  2  0  0  0  0  0  0
    0.1503    1.9416    0.0001 N   0  0  0  0  0  0  0  0  0  0  0  0
   -1.7164   -1.5301    0.0001 O   0  5  0  0  0  0  0  0  0  0  0  0
    1.8817    0.3071    0.0000 N   0  0  0  0  0  2  0  0  0  0  0  0
   -2.4969   -0.4914   -0.0000 C   0  0  0  0  0  0  0  0  0  0  0  0
   -2.7800    2.0115   -0.0001 C   0  0  0  0  0  0  0  0  0  0  0  0
    1.4935    1.6387   -0.0000 C   0  0  0  0  0  0  0  0  0  0  0  0
    2.4720    2.6535   -0.0000 C   0  0  0  0  0  0  0  0  0  0  0  0
   -3.9228   -0.6130   -0.0000 C   0  0  0  0  0  0  0  0  0  0  0  0
   -1.9535    0.8576   -0.0000 C   0  0  0  0  0  0  0  0  0  0  0  0
    3.1819   -0.0301   -0.0000 C   0  0  0  0  0  0  0  0  0  0  0  0
   -4.7138    0.5267   -0.0001 C   0  0  0  0  0  0  0  0  0  0  0  0
    4.1910    0.9426   -0.0001 C   0  0  0  0  0  0  0  0  0  0  0  0
    3.8248    2.2992   -0.0001 C   0  0  0  0  0  0  0  0  0  0  0  0
   -4.1550    1.8415   -0.0001 C   0  0  0  0  0  0  0  0  0  0  0  0
    2.1357    3.6985   -0.0000 H   0  0  0  0  0  0  0  0  0  0  0  0
   -5.8095    0.4159   -0.0001 H   0  0  0  0  0  0  0  0  0  0  0  0
   -4.3549   -1.6236    0.0000 H   0  0  0  0  0  0  0  0  0  0  0  0
    3.3753   -1.1157    0.0001 H   0  0  0  0  0  0  0  0  0  0  0  0
    5.2443    0.6309   -0.0001 H   0  0  0  0  0  0  0  0  0  0  0  0
    4.5964    3.0834   -0.0001 H   0  0  0  0  0  0  0  0  0  0  0  0
   -2.3059    3.0027   -0.0001 H   0  0  0  0  0  0  0  0  0  0  0  0
   -4.8214    2.7161   -0.0002 H   0  0  0  0  0  0  0  0  0  0  0  0
  1  2  1  0  0  0  0
  5  9  1  0  0  0  0
  5  3  1  0  0  0  0
  6 22  1  0  0  0  0
  6 10  1  0  0  0  0
  7  4  1  0  0  0  0
  7  2  2  0  0  0  0
  8 16  1  0  0  0  0
  8  7  1  0  0  0  0
  9 18  1  0  0  0  0
 10  5  2  0  0  0  0
 10  1  1  0  0  0  0
 11  4  1  0  0  0  0
 11 19  1  0  0  0  0
 12  9  2  0  0  0  0
 13 11  2  0  0  0  0
 14 13  1  0  0  0  0
 14  8  2  0  0  0  0
 15  6  2  0  0  0  0
 15 12  1  0  0  0  0
 17 12  1  0  0  0  0
 20 13  1  0  0  0  0
 21 14  1  0  0  0  0
 23 15  1  0  0  0  0
M  CHG  1   3  -1
M  END
