2,4,21
 OpenBabel05122313063D

 30 30  0  0  1  0  0  0  0  0999 V2000
   -4.6441    0.8579   -0.3745 S   0  0  0  0  0  0  0  0  0  0  0  0
    1.3369   -0.2849    0.0415 O   0  0  0  0  0  1  0  0  0  0  0  0
    3.8738   -0.8907   -0.0471 O   0  0  0  0  0  0  0  0  0  0  0  0
   -1.9880    1.2784   -0.1476 N   0  0  0  0  0  2  0  0  0  0  0  0
   -2.2509    2.2334   -0.4073 H   0  0  0  0  0  0  0  0  0  0  0  0
    1.6106   -1.5621    0.0263 C   0  0  2  0  0  3  0  0  0  0  0  0
    1.0307   -3.9653    0.0514 C   0  0  0  0  0  0  0  0  0  0  0  0
    0.2557   -4.7470    0.0669 H   0  0  0  0  0  0  0  0  0  0  0  0
    2.9980   -1.9463   -0.0066 C   0  0  0  0  0  0  0  0  0  0  0  0
    5.2510   -1.1886   -0.0761 C   0  0  0  0  0  0  0  0  0  0  0  0
    5.7868   -0.2203   -0.1052 H   0  0  0  0  0  0  0  0  0  0  0  0
    5.5340   -1.7826   -0.9759 H   0  0  0  0  0  0  0  0  0  0  0  0
    5.5772   -1.7515    0.8288 H   0  0  0  0  0  0  0  0  0  0  0  0
    3.3672   -3.2926    0.0038 C   0  0  0  0  0  0  0  0  0  0  0  0
    4.4276   -3.5790   -0.0149 H   0  0  0  0  0  0  0  0  0  0  0  0
    2.3750   -4.3057    0.0375 C   0  0  0  0  0  0  0  0  0  0  0  0
    2.6829   -5.3615    0.0476 H   0  0  0  0  0  0  0  0  0  0  0  0
    0.6205   -2.5985    0.0383 C   0  0  0  0  0  0  0  0  0  0  0  0
   -0.7746   -2.2784    0.0165 C   0  0  0  0  0  0  0  0  0  0  0  0
   -1.5114   -3.1010    0.0203 H   0  0  0  0  0  0  0  0  0  0  0  0
   -1.2860   -1.0602   -0.0338 N   0  0  0  0  0  2  0  0  0  0  0  0
   -2.6502   -0.9407   -0.0814 N   0  0  0  0  0  0  0  0  0  0  0  0
   -2.9562    0.3451   -0.1879 C   0  0  0  0  0  0  0  0  0  0  0  0
   -5.5112   -0.7578   -0.4222 C   0  0  0  0  0  0  0  0  0  0  0  0
   -6.4775   -0.5233   -0.9144 H   0  0  0  0  0  0  0  0  0  0  0  0
   -4.9227   -1.4111   -1.0956 H   0  0  0  0  0  0  0  0  0  0  0  0
   -5.7036   -1.3976    0.9465 C   0  0  0  0  0  0  0  0  0  0  0  0
   -6.2735   -2.3457    0.8481 H   0  0  0  0  0  0  0  0  0  0  0  0
   -6.2584   -0.7284    1.6339 H   0  0  0  0  0  0  0  0  0  0  0  0
   -4.7175   -1.6319    1.3917 H   0  0  0  0  0  0  0  0  0  0  0  0
  1 23  1  0  0  0  0
  3  9  1  0  0  0  0
  5  4  1  0  0  0  0
  6 18  1  0  0  0  0
  6  2  1  6  0  0  0
  7  8  1  0  0  0  0
  9 14  2  0  0  0  0
  9  6  1  0  0  0  0
 10  3  1  0  0  0  0
 10 13  1  0  0  0  0
 11 10  1  0  0  0  0
 12 10  1  0  0  0  0
 14 16  1  0  0  0  0
 15 14  1  0  0  0  0
 16 17  1  0  0  0  0
 16  7  2  0  0  0  0
 18  7  1  0  0  0  0
 19 20  1  0  0  0  0
 19 18  2  0  0  0  0
 21 19  1  0  0  0  0
 22 21  1  0  0  0  0
 23  4  1  0  0  0  0
 23 22  2  0  0  0  0
 24  1  1  0  0  0  0
 24 27  1  0  0  0  0
 25 24  1  0  0  0  0
 26 24  1  0  0  0  0
 27 30  1  0  0  0  0
 27 29  1  0  0  0  0
 28 27  1  0  0  0  0
M  END
