1,2,3,4,6,8
 OpenBabel05122313063D

 68 70  0  0  0  0  0  0  0  0999 V2000
    0.9367   -1.5812   -0.8164 S   0  0  0  0  0  5  0  0  0  0  0  0
    0.9009    1.6010   -0.8173 S   0  0  0  0  0  5  0  0  0  0  0  0
   -1.8368   -0.0207   -0.8175 S   0  0  0  0  0  5  0  0  0  0  0  0
   -0.9557   -1.4005    1.6433 N   0  0  0  0  0  0  0  0  0  0  0  0
   -1.9003   -1.2854    1.1746 H   0  0  0  0  0  0  0  0  0  0  0  0
    1.6908   -0.1265    1.6434 N   0  0  0  0  0  0  0  0  0  0  0  0
    2.0636   -1.0022    1.1750 H   0  0  0  0  0  0  0  0  0  0  0  0
   -0.7360    1.5281    1.6425 N   0  0  0  0  0  0  0  0  0  0  0  0
   -0.1646    2.2890    1.1737 H   0  0  0  0  0  0  0  0  0  0  0  0
    2.0283   -2.2172    0.0616 O   0  0  0  0  0  0  0  0  0  0  0  0
    1.3490   -1.2091   -2.2016 O   0  0  0  0  0  0  0  0  0  0  0  0
    0.9054    2.8650    0.0598 O   0  0  0  0  0  0  0  0  0  0  0  0
    0.3725    1.7707   -2.2027 O   0  0  0  0  0  0  0  0  0  0  0  0
   -2.9340   -0.6482    0.0597 O   0  0  0  0  0  0  0  0  0  0  0  0
   -1.7196   -0.5635   -2.2027 O   0  0  0  0  0  0  0  0  0  0  0  0
   -0.2819   -2.9096   -0.9874 C   0  0  0  0  0  0  0  0  0  0  0  0
   -0.9159   -3.4022    0.1661 C   0  0  0  0  0  0  0  0  0  0  0  0
   -1.8632   -4.4292    0.0050 C   0  0  0  0  0  0  0  0  0  0  0  0
   -2.3832   -4.8246    0.8921 H   0  0  0  0  0  0  0  0  0  0  0  0
   -2.1486   -4.9477   -1.2668 C   0  0  0  0  0  0  0  0  0  0  0  0
   -2.8931   -5.7510   -1.3731 H   0  0  0  0  0  0  0  0  0  0  0  0
   -1.5000   -4.4345   -2.4015 C   0  0  0  0  0  0  0  0  0  0  0  0
   -1.7343   -4.8321   -3.4003 H   0  0  0  0  0  0  0  0  0  0  0  0
   -0.5669   -3.3981   -2.2649 C   0  0  0  0  0  0  0  0  0  0  0  0
   -0.0628   -2.9382   -3.1265 H   0  0  0  0  0  0  0  0  0  0  0  0
   -0.5915   -2.8424    1.5261 C   0  0  0  0  0  0  0  0  0  0  0  0
   -1.1560   -3.4161    2.2925 H   0  0  0  0  0  0  0  0  0  0  0  0
    0.4920   -2.9642    1.7274 H   0  0  0  0  0  0  0  0  0  0  0  0
    2.6608    1.2103   -0.9879 C   0  0  0  0  0  0  0  0  0  0  0  0
    3.4044    0.9082    0.1659 C   0  0  0  0  0  0  0  0  0  0  0  0
    4.7675    0.6015    0.0051 C   0  0  0  0  0  0  0  0  0  0  0  0
    5.3698    0.3492    0.8923 H   0  0  0  0  0  0  0  0  0  0  0  0
    5.3594    0.6134   -1.2667 C   0  0  0  0  0  0  0  0  0  0  0  0
    6.4274    0.3705   -1.3727 H   0  0  0  0  0  0  0  0  0  0  0  0
    4.5907    0.9181   -2.4015 C   0  0  0  0  0  0  0  0  0  0  0  0
    5.0524    0.9139   -3.4003 H   0  0  0  0  0  0  0  0  0  0  0  0
    3.2266    1.2076   -2.2653 C   0  0  0  0  0  0  0  0  0  0  0  0
    2.5762    1.4138   -3.1270 H   0  0  0  0  0  0  0  0  0  0  0  0
    2.7572    0.9100    1.5258 C   0  0  0  0  0  0  0  0  0  0  0  0
    3.5362    0.7084    2.2924 H   0  0  0  0  0  0  0  0  0  0  0  0
    2.3208    1.9092    1.7266 H   0  0  0  0  0  0  0  0  0  0  0  0
   -2.3782    1.6987   -0.9885 C   0  0  0  0  0  0  0  0  0  0  0  0
   -2.4893    2.4937    0.1652 C   0  0  0  0  0  0  0  0  0  0  0  0
   -2.9057    3.8274    0.0043 C   0  0  0  0  0  0  0  0  0  0  0  0
   -2.9890    4.4751    0.8915 H   0  0  0  0  0  0  0  0  0  0  0  0
   -3.2114    4.3340   -1.2676 C   0  0  0  0  0  0  0  0  0  0  0  0
   -3.5354    5.3802   -1.3738 H   0  0  0  0  0  0  0  0  0  0  0  0
   -3.0899    3.5161   -2.4025 C   0  0  0  0  0  0  0  0  0  0  0  0
   -3.3166    3.9181   -3.4014 H   0  0  0  0  0  0  0  0  0  0  0  0
   -2.6582    2.1901   -2.2661 C   0  0  0  0  0  0  0  0  0  0  0  0
   -2.5109    1.5238   -3.1277 H   0  0  0  0  0  0  0  0  0  0  0  0
   -2.1670    1.9327    1.5251 C   0  0  0  0  0  0  0  0  0  0  0  0
   -2.8138    1.0547    1.7260 H   0  0  0  0  0  0  0  0  0  0  0  0
   -2.3823    2.7080    2.2917 H   0  0  0  0  0  0  0  0  0  0  0  0
   -0.0004    0.0009    3.5455 C   0  0  0  0  0  0  0  0  0  0  0  0
   -1.0889   -0.9701    3.0541 C   0  0  0  0  0  0  0  0  0  0  0  0
   -2.0861   -0.5014    3.1897 H   0  0  0  0  0  0  0  0  0  0  0  0
   -1.0753   -1.8690    3.7074 H   0  0  0  0  0  0  0  0  0  0  0  0
    1.3847   -0.4566    3.0542 C   0  0  0  0  0  0  0  0  0  0  0  0
    2.1565    0.0046    3.7074 H   0  0  0  0  0  0  0  0  0  0  0  0
    1.4772   -1.5545    3.1902 H   0  0  0  0  0  0  0  0  0  0  0  0
   -0.2967    1.4290    3.0533 C   0  0  0  0  0  0  0  0  0  0  0  0
   -1.0818    1.8673    3.7064 H   0  0  0  0  0  0  0  0  0  0  0  0
    0.6080    2.0580    3.1885 H   0  0  0  0  0  0  0  0  0  0  0  0
   -0.0006    0.0014    5.0820 C   0  0  0  0  0  0  0  0  0  0  0  0
    0.6699    0.7896    5.4814 H   0  0  0  0  0  0  0  0  0  0  0  0
    0.3466   -0.9731    5.4819 H   0  0  0  0  0  0  0  0  0  0  0  0
   -1.0182    0.1882    5.4814 H   0  0  0  0  0  0  0  0  0  0  0  0
  1 10  2  0  0  0  0
  2 12  2  0  0  0  0
  3 14  2  0  0  0  0
  4 56  1  0  0  0  0
  5  4  1  0  0  0  0
  6 59  1  0  0  0  0
  7  6  1  0  0  0  0
  8 62  1  0  0  0  0
  9  8  1  0  0  0  0
 11  1  2  0  0  0  0
 13  2  2  0  0  0  0
 15  3  2  0  0  0  0
 16  1  1  0  0  0  0
 16 17  1  0  0  0  0
 17 26  1  0  0  0  0
 18 17  2  0  0  0  0
 18 19  1  0  0  0  0
 20 18  1  0  0  0  0
 21 20  1  0  0  0  0
 22 24  1  0  0  0  0
 22 20  2  0  0  0  0
 23 22  1  0  0  0  0
 24 16  2  0  0  0  0
 25 24  1  0  0  0  0
 26  4  1  0  0  0  0
 26 28  1  0  0  0  0
 26 27  1  0  0  0  0
 29  2  1  0  0  0  0
 29 30  1  0  0  0  0
 30 39  1  0  0  0  0
 31 30  2  0  0  0  0
 31 32  1  0  0  0  0
 33 31  1  0  0  0  0
 34 33  1  0  0  0  0
 35 37  1  0  0  0  0
 35 33  2  0  0  0  0
 36 35  1  0  0  0  0
 37 29  2  0  0  0  0
 38 37  1  0  0  0  0
 39  6  1  0  0  0  0
 39 41  1  0  0  0  0
 39 40  1  0  0  0  0
 42  3  1  0  0  0  0
 42 43  1  0  0  0  0
 43 52  1  0  0  0  0
 44 43  2  0  0  0  0
 44 45  1  0  0  0  0
 46 44  1  0  0  0  0
 47 46  1  0  0  0  0
 48 50  1  0  0  0  0
 48 46  2  0  0  0  0
 49 48  1  0  0  0  0
 50 42  2  0  0  0  0
 51 50  1  0  0  0  0
 52  8  1  0  0  0  0
 52 53  1  0  0  0  0
 52 54  1  0  0  0  0
 55 65  1  0  0  0  0
 56 57  1  0  0  0  0
 56 55  1  0  0  0  0
 56 58  1  0  0  0  0
 59 61  1  0  0  0  0
 59 55  1  0  0  0  0
 59 60  1  0  0  0  0
 62 64  1  0  0  0  0
 62 55  1  0  0  0  0
 62 63  1  0  0  0  0
 65 66  1  0  0  0  0
 65 68  1  0  0  0  0
 65 67  1  0  0  0  0
M  END
