1,2,6
 OpenBabel05122313063D

 10  9  0  0  0  0  0  0  0  0999 V2000
   -1.2281   -0.8185    1.5159 S   0  0  0  0  0  0  0  0  0  0  0  0
   -1.4394    0.6390   -0.9969 O   0  5  0  0  0  0  0  0  0  0  0  0
   -3.6471    0.4830   -1.3524 O   0  0  0  0  0  0  0  0  0  0  0  0
   -2.6572    0.2436   -0.6861 C   0  0  0  0  0  0  0  0  0  0  0  0
   -2.8066   -0.5869    0.6104 C   0  0  0  0  0  0  0  0  0  0  0  0
   -0.6264    0.8669    1.6070 C   0  0  0  0  0  3  0  0  0  0  0  0
   -3.5421   -0.1115    1.2890 H   0  0  0  0  0  0  0  0  0  0  0  0
   -3.1872   -1.5996    0.3676 H   0  0  0  0  0  0  0  0  0  0  0  0
   -1.4331    1.6245    1.5496 H   0  0  0  0  0  0  0  0  0  0  0  0
    0.0092    1.0145    2.5049 H   0  0  0  0  0  0  0  0  0  0  0  0
  1  6  1  0  0  0  0
  2  4  1  0  0  0  0
  3  4  2  0  0  0  0
  4  5  1  0  0  0  0
  5  7  1  0  0  0  0
  5  1  1  0  0  0  0
  6 10  1  0  0  0  0
  8  5  1  0  0  0  0
  9  6  1  0  0  0  0
M  CHG  1   2  -1
M  END
