1,3,27
 OpenBabel05122313063D

 66 70  0  0  1  0  0  0  0  0999 V2000
    2.5110   -0.6235   -0.2216 P   0  0  0  0  0  0  0  0  0  0  0  0
    1.8687   -1.9318   -1.1610 N   0  0  0  0  0  0  0  0  0  0  0  0
   -1.3011    1.0331    0.6540 N   0  0  0  0  0  2  0  0  0  0  0  0
   -3.4780    0.6881    0.2037 N   0  0  0  0  0  0  0  0  0  0  0  0
    3.6744    0.2708   -1.3119 C   0  0  0  0  0  0  0  0  0  0  0  0
    4.1459    1.5261   -0.8708 C   0  0  0  0  0  0  0  0  0  0  0  0
    3.7637    1.9476    0.0762 H   0  0  0  0  0  0  0  0  0  0  0  0
    5.0551    2.2380   -1.6656 C   0  0  0  0  0  0  0  0  0  0  0  0
    5.4202    3.2192   -1.3257 H   0  0  0  0  0  0  0  0  0  0  0  0
    5.4867    1.7134   -2.8959 C   0  0  0  0  0  0  0  0  0  0  0  0
    6.1977    2.2793   -3.5172 H   0  0  0  0  0  0  0  0  0  0  0  0
    4.9983    0.4750   -3.3421 C   0  0  0  0  0  0  0  0  0  0  0  0
    5.3213    0.0704   -4.3135 H   0  0  0  0  0  0  0  0  0  0  0  0
    4.0890   -0.2471   -2.5536 C   0  0  0  0  0  0  0  0  0  0  0  0
    3.6846   -1.2067   -2.9096 H   0  0  0  0  0  0  0  0  0  0  0  0
    3.5787   -1.4334    1.0258 C   0  0  0  0  0  0  0  0  0  0  0  0
    4.9519   -1.6625    0.8083 C   0  0  0  0  0  0  0  0  0  0  0  0
    5.4288   -1.3074   -0.1183 H   0  0  0  0  0  0  0  0  0  0  0  0
    5.7106   -2.3314    1.7813 C   0  0  0  0  0  0  0  0  0  0  0  0
    6.7837   -2.5076    1.6112 H   0  0  0  0  0  0  0  0  0  0  0  0
    5.1056   -2.7646    2.9717 C   0  0  0  0  0  0  0  0  0  0  0  0
    5.7053   -3.2820    3.7361 H   0  0  0  0  0  0  0  0  0  0  0  0
    3.7386   -2.5265    3.1945 C   0  0  0  0  0  0  0  0  0  0  0  0
    3.2673   -2.8520    4.1342 H   0  0  0  0  0  0  0  0  0  0  0  0
    2.9752   -1.8590    2.2278 C   0  0  0  0  0  0  0  0  0  0  0  0
    1.9078   -1.6464    2.3989 H   0  0  0  0  0  0  0  0  0  0  0  0
   -0.2434   -0.9668   -0.5906 C   0  0  0  0  0  2  0  0  0  0  0  0
    0.4708   -1.9857   -1.2677 C   0  0  0  0  0  0  0  0  0  0  0  0
   -0.2360   -2.9552   -2.0053 C   0  0  0  0  0  0  0  0  0  0  0  0
    0.3052   -3.7521   -2.5396 H   0  0  0  0  0  0  0  0  0  0  0  0
   -1.6413   -2.8885   -2.0777 C   0  0  0  0  0  0  0  0  0  0  0  0
   -2.1811   -3.6417   -2.6708 H   0  0  0  0  0  0  0  0  0  0  0  0
   -2.3641   -1.8841   -1.4193 C   0  0  0  0  0  0  0  0  0  0  0  0
   -3.4574   -1.8506   -1.5058 H   0  0  0  0  0  0  0  0  0  0  0  0
   -1.6574   -0.9232   -0.6571 C   0  0  0  0  0  0  0  0  0  0  0  0
   -2.1867    0.2344    0.0830 C   0  0  0  0  0  0  0  0  0  0  0  0
   -3.4622    1.9463    0.9802 C   0  0  0  0  0  0  0  0  0  0  0  0
   -3.9853    1.7876    1.9470 H   0  0  0  0  0  0  0  0  0  0  0  0
   -3.9934    2.7545    0.4355 H   0  0  0  0  0  0  0  0  0  0  0  0
   -1.9448    2.2467    1.1567 C   0  0  2  0  0  0  0  0  0  0  0  0
   -1.6832    2.3785    2.2279 H   0  0  0  0  0  0  0  0  0  0  0  0
   -4.6705   -0.0669    0.0838 C   0  0  0  0  0  0  0  0  0  0  0  0
   -4.7768   -1.3570    0.6447 C   0  0  0  0  0  0  0  0  0  0  0  0
   -3.9111   -1.7933    1.1640 H   0  0  0  0  0  0  0  0  0  0  0  0
   -5.9732   -2.0737    0.5356 C   0  0  0  0  0  0  0  0  0  0  0  0
   -6.0358   -3.0823    0.9742 H   0  0  0  0  0  0  0  0  0  0  0  0
   -7.1057   -1.5244   -0.1032 C   0  0  0  0  0  0  0  0  0  0  0  0
   -6.9929   -0.2227   -0.6316 C   0  0  0  0  0  0  0  0  0  0  0  0
   -7.8618    0.2342   -1.1310 H   0  0  0  0  0  0  0  0  0  0  0  0
   -5.7946    0.4983   -0.5476 C   0  0  0  0  0  0  0  0  0  0  0  0
   -5.7203    1.5048   -0.9850 H   0  0  0  0  0  0  0  0  0  0  0  0
   -8.3837   -2.3147   -0.2247 C   0  0  0  0  0  0  0  0  0  0  0  0
   -8.6388   -2.8243    0.7266 H   0  0  0  0  0  0  0  0  0  0  0  0
   -8.2923   -3.1068   -0.9987 H   0  0  0  0  0  0  0  0  0  0  0  0
   -9.2380   -1.6705   -0.5095 H   0  0  0  0  0  0  0  0  0  0  0  0
   -1.4294    3.4981    0.4023 C   0  0  0  0  0  0  0  0  0  0  0  0
   -0.3345    3.5003    0.5982 H   0  0  0  0  0  0  0  0  0  0  0  0
   -1.6466    3.4019   -1.1099 C   0  0  0  0  0  0  0  0  0  0  0  0
   -1.2063    4.2808   -1.6224 H   0  0  0  0  0  0  0  0  0  0  0  0
   -2.7249    3.3734   -1.3791 H   0  0  0  0  0  0  0  0  0  0  0  0
   -1.1634    2.4946   -1.5250 H   0  0  0  0  0  0  0  0  0  0  0  0
   -2.0283    4.7747    0.9991 C   0  0  0  0  0  0  0  0  0  0  0  0
   -1.8306    4.8450    2.0886 H   0  0  0  0  0  0  0  0  0  0  0  0
   -3.1288    4.8299    0.8490 H   0  0  0  0  0  0  0  0  0  0  0  0
   -1.5910    5.6737    0.5203 H   0  0  0  0  0  0  0  0  0  0  0  0
    2.4278   -2.7479   -1.4158 H   0  0  0  0  0  0  0  0  0  0  0  0
  1 16  1  0  0  0  0
  2  1  1  0  0  0  0
  3 40  1  0  0  0  0
  4 37  1  0  0  0  0
  5  6  1  0  0  0  0
  5  1  1  0  0  0  0
  6  7  1  0  0  0  0
  8  9  1  0  0  0  0
  8  6  2  0  0  0  0
 10  8  1  0  0  0  0
 11 10  1  0  0  0  0
 12 10  2  0  0  0  0
 12 14  1  0  0  0  0
 13 12  1  0  0  0  0
 14  5  2  0  0  0  0
 15 14  1  0  0  0  0
 16 25  1  0  0  0  0
 17 16  2  0  0  0  0
 17 19  1  0  0  0  0
 18 17  1  0  0  0  0
 19 21  2  0  0  0  0
 20 19  1  0  0  0  0
 21 23  1  0  0  0  0
 21 22  1  0  0  0  0
 23 24  1  0  0  0  0
 25 26  1  0  0  0  0
 25 23  2  0  0  0  0
 28  2  1  0  0  0  0
 28 27  1  0  0  0  0
 29 28  2  0  0  0  0
 30 29  1  0  0  0  0
 31 29  1  0  0  0  0
 31 33  2  0  0  0  0
 32 31  1  0  0  0  0
 33 35  1  0  0  0  0
 34 33  1  0  0  0  0
 35 27  1  0  0  0  0
 35 36  2  0  0  0  0
 36  4  1  0  0  0  0
 36  3  1  0  0  0  0
 37 40  1  0  0  0  0
 37 38  1  0  0  0  0
 39 37  1  0  0  0  0
 40 41  1  1  0  0  0
 42  4  1  0  0  0  0
 42 43  1  0  0  0  0
 43 44  1  0  0  0  0
 45 43  2  0  0  0  0
 45 46  1  0  0  0  0
 47 45  1  0  0  0  0
 48 50  1  0  0  0  0
 48 47  2  0  0  0  0
 49 48  1  0  0  0  0
 50 42  2  0  0  0  0
 51 50  1  0  0  0  0
 52 47  1  0  0  0  0
 52 53  1  0  0  0  0
 54 52  1  0  0  0  0
 55 52  1  0  0  0  0
 56 57  1  0  0  0  0
 56 62  1  0  0  0  0
 56 40  1  0  0  0  0
 58 56  1  0  0  0  0
 59 58  1  0  0  0  0
 60 58  1  0  0  0  0
 61 58  1  0  0  0  0
 62 63  1  0  0  0  0
 64 62  1  0  0  0  0
 65 62  1  0  0  0  0
 66  2  1  0  0  0  0
M  END
