1,2,39
 OpenBabel05122313063D

 62 65  0  0  1  0  0  0  0  0999 V2000
    1.4079   -0.0964    0.2861 P   0  0  0  0  0  0  0  0  0  0  0  0
   -2.6715    0.5554   -0.9254 N   0  0  0  0  0  2  0  0  0  0  0  0
   -3.6500   -0.2022   -0.3684 N   0  0  0  0  0  0  0  0  0  0  0  0
    1.1578   -0.4929    1.9258 O   0  0  0  0  0  0  0  0  0  0  0  0
    2.3965    1.4500    0.4013 C   0  0  0  0  0  0  0  0  0  0  0  0
    2.6570    1.6548   -0.6623 H   0  0  0  0  0  0  0  0  0  0  0  0
    1.5009    2.6005    0.9008 C   0  0  0  0  0  0  0  0  0  0  0  0
    1.0934    2.3326    1.9005 H   0  0  0  0  0  0  0  0  0  0  0  0
    0.6350    2.7067    0.2151 H   0  0  0  0  0  0  0  0  0  0  0  0
    2.2885    3.9132    0.9946 C   0  0  0  0  0  0  0  0  0  0  0  0
    2.5847    4.2311   -0.0301 H   0  0  0  0  0  0  0  0  0  0  0  0
    1.6336    4.7156    1.3939 H   0  0  0  0  0  0  0  0  0  0  0  0
    3.5445    3.7596    1.8607 C   0  0  0  0  0  0  0  0  0  0  0  0
    3.2419    3.5364    2.9087 H   0  0  0  0  0  0  0  0  0  0  0  0
    4.1134    4.7123    1.8948 H   0  0  0  0  0  0  0  0  0  0  0  0
    4.4363    2.6248    1.3426 C   0  0  0  0  0  0  0  0  0  0  0  0
    5.3279    2.4985    1.9920 H   0  0  0  0  0  0  0  0  0  0  0  0
    4.8186    2.8927    0.3321 H   0  0  0  0  0  0  0  0  0  0  0  0
    3.6708    1.2961    1.2506 C   0  0  0  0  0  0  0  0  0  0  0  0
    4.3300    0.5090    0.8289 H   0  0  0  0  0  0  0  0  0  0  0  0
    3.3805    0.9586    2.2694 H   0  0  0  0  0  0  0  0  0  0  0  0
    2.5221   -1.4586   -0.2753 C   0  0  0  0  0  0  0  0  0  0  0  0
    3.3041   -1.5414    0.5143 H   0  0  0  0  0  0  0  0  0  0  0  0
    3.1816   -1.1327   -1.6293 C   0  0  0  0  0  0  0  0  0  0  0  0
    2.3855   -0.8931   -2.3676 H   0  0  0  0  0  0  0  0  0  0  0  0
    3.8050   -0.2183   -1.5453 H   0  0  0  0  0  0  0  0  0  0  0  0
    4.0395   -2.3064   -2.1227 C   0  0  0  0  0  0  0  0  0  0  0  0
    4.4659   -2.0616   -3.1178 H   0  0  0  0  0  0  0  0  0  0  0  0
    4.9052   -2.4433   -1.4353 H   0  0  0  0  0  0  0  0  0  0  0  0
    3.2381   -3.6121   -2.1857 C   0  0  0  0  0  0  0  0  0  0  0  0
    2.4335   -3.5089   -2.9477 H   0  0  0  0  0  0  0  0  0  0  0  0
    3.8858   -4.4485   -2.5223 H   0  0  0  0  0  0  0  0  0  0  0  0
    2.6046   -3.9357   -0.8273 C   0  0  0  0  0  0  0  0  0  0  0  0
    3.4092   -4.1350   -0.0837 H   0  0  0  0  0  0  0  0  0  0  0  0
    1.9989   -4.8640   -0.8877 H   0  0  0  0  0  0  0  0  0  0  0  0
    1.7286   -2.7790   -0.3295 C   0  0  0  0  0  0  0  0  0  0  0  0
    0.8640   -2.6398   -1.0162 H   0  0  0  0  0  0  0  0  0  0  0  0
    1.3019   -3.0097    0.6682 H   0  0  0  0  0  0  0  0  0  0  0  0
   -1.1026   -0.8285    1.1446 C   0  0  0  0  0  3  0  0  0  0  0  0
   -0.1280   -0.9457    2.1665 C   0  0  0  0  0  0  0  0  0  0  0  0
   -0.4134   -1.5504    3.4005 C   0  0  0  0  0  0  0  0  0  0  0  0
    0.3710   -1.6094    4.1688 H   0  0  0  0  0  0  0  0  0  0  0  0
   -1.6932   -2.0877    3.6129 C   0  0  0  0  0  0  0  0  0  0  0  0
   -1.9312   -2.5601    4.5777 H   0  0  0  0  0  0  0  0  0  0  0  0
   -2.6562   -2.0492    2.5925 C   0  0  0  0  0  0  0  0  0  0  0  0
   -3.6446   -2.5106    2.7487 H   0  0  0  0  0  0  0  0  0  0  0  0
   -2.3550   -1.4371    1.3586 C   0  0  0  0  0  0  0  0  0  0  0  0
   -3.3332   -1.5037    0.2034 C   0  0  0  0  0  0  0  0  0  0  0  0
   -2.9068   -2.1315   -0.6095 H   0  0  0  0  0  0  0  0  0  0  0  0
   -4.2861   -1.9662    0.5175 H   0  0  0  0  0  0  0  0  0  0  0  0
   -6.1210   -0.1785    0.1136 C   0  0  0  0  0  0  0  0  0  0  0  0
   -6.3876   -1.1217   -0.4081 H   0  0  0  0  0  0  0  0  0  0  0  0
   -6.9589    0.5287   -0.0263 H   0  0  0  0  0  0  0  0  0  0  0  0
   -6.0475   -0.4041    1.1979 H   0  0  0  0  0  0  0  0  0  0  0  0
   -4.8627    0.4251   -0.4178 C   0  0  2  0  0  3  0  0  0  0  0  0
   -4.6381    1.6530   -1.0436 C   0  0  0  0  0  0  0  0  0  0  0  0
   -5.3860    2.4230   -1.2587 H   0  0  0  0  0  0  0  0  0  0  0  0
   -3.2548    1.7051   -1.3382 C   0  0  0  0  0  0  0  0  0  0  0  0
   -2.4860    2.8325   -1.9434 C   0  0  0  0  0  0  0  0  0  0  0  0
   -1.6065    2.4598   -2.5034 H   0  0  0  0  0  0  0  0  0  0  0  0
   -2.1055    3.5121   -1.1509 H   0  0  0  0  0  0  0  0  0  0  0  0
   -3.1378    3.4285   -2.6103 H   0  0  0  0  0  0  0  0  0  0  0  0
  1  5  1  0  0  0  0
  1  4  1  0  0  0  0
  2  3  1  0  0  0  0
  3 48  1  0  0  0  0
  4 40  1  0  0  0  0
  5  7  1  0  0  0  0
  5 19  1  0  0  0  0
  6  5  1  0  0  0  0
  7 10  1  0  0  0  0
  7  8  1  0  0  0  0
  9  7  1  0  0  0  0
 10 12  1  0  0  0  0
 10 13  1  0  0  0  0
 11 10  1  0  0  0  0
 13 15  1  0  0  0  0
 13 14  1  0  0  0  0
 16 13  1  0  0  0  0
 16 17  1  0  0  0  0
 18 16  1  0  0  0  0
 19 16  1  0  0  0  0
 19 21  1  0  0  0  0
 20 19  1  0  0  0  0
 22  1  1  0  0  0  0
 22 23  1  0  0  0  0
 24 26  1  0  0  0  0
 24 22  1  0  0  0  0
 25 24  1  0  0  0  0
 27 24  1  0  0  0  0
 27 29  1  0  0  0  0
 28 27  1  0  0  0  0
 30 27  1  0  0  0  0
 30 33  1  0  0  0  0
 31 30  1  0  0  0  0
 32 30  1  0  0  0  0
 33 36  1  0  0  0  0
 33 34  1  0  0  0  0
 35 33  1  0  0  0  0
 36 22  1  0  0  0  0
 36 38  1  0  0  0  0
 37 36  1  0  0  0  0
 39 47  2  0  0  0  0
 39 40  1  0  0  0  0
 40 41  2  0  0  0  0
 41 43  1  0  0  0  0
 41 42  1  0  0  0  0
 43 44  1  0  0  0  0
 45 46  1  0  0  0  0
 45 43  2  0  0  0  0
 47 45  1  0  0  0  0
 48 50  1  0  0  0  0
 48 47  1  0  0  0  0
 49 48  1  0  0  0  0
 51 54  1  0  0  0  0
 52 51  1  0  0  0  0
 53 51  1  0  0  0  0
 55  3  1  0  0  0  0
 55 51  1  6  0  0  0
 56 55  1  0  0  0  0
 57 56  1  0  0  0  0
 58 56  2  0  0  0  0
 58  2  1  0  0  0  0
 59 58  1  0  0  0  0
 59 61  1  0  0  0  0
 60 59  1  0  0  0  0
 62 59  1  0  0  0  0
M  END
