1,3,27
 OpenBabel05122313063D

 65 69  0  0  1  0  0  0  0  0999 V2000
    2.4739   -0.6197   -0.1431 P   0  0  0  0  0  0  0  0  0  0  0  0
    1.8923   -2.0267   -0.9214 O   0  0  0  0  0  0  0  0  0  0  0  0
   -1.3144    1.1068    0.5984 N   0  0  0  0  0  2  0  0  0  0  0  0
   -3.4836    0.6707    0.1882 N   0  0  0  0  0  0  0  0  0  0  0  0
    3.6026    0.0802   -1.3934 C   0  0  0  0  0  0  0  0  0  0  0  0
    3.9274    1.4489   -1.2945 C   0  0  0  0  0  0  0  0  0  0  0  0
    3.4627    2.0644   -0.5035 H   0  0  0  0  0  0  0  0  0  0  0  0
    4.8249    2.0082   -2.2163 C   0  0  0  0  0  0  0  0  0  0  0  0
    5.0818    3.0759   -2.1440 H   0  0  0  0  0  0  0  0  0  0  0  0
    5.3823    1.2160   -3.2332 C   0  0  0  0  0  0  0  0  0  0  0  0
    6.0808    1.6620   -3.9577 H   0  0  0  0  0  0  0  0  0  0  0  0
    5.0429   -0.1437   -3.3343 C   0  0  0  0  0  0  0  0  0  0  0  0
    5.4723   -0.7616   -4.1377 H   0  0  0  0  0  0  0  0  0  0  0  0
    4.1544   -0.7186   -2.4144 C   0  0  0  0  0  0  0  0  0  0  0  0
    3.8757   -1.7799   -2.4913 H   0  0  0  0  0  0  0  0  0  0  0  0
    3.5580   -1.3085    1.1490 C   0  0  0  0  0  0  0  0  0  0  0  0
    3.9406   -0.4488    2.1996 C   0  0  0  0  0  0  0  0  0  0  0  0
    3.5425    0.5808    2.2355 H   0  0  0  0  0  0  0  0  0  0  0  0
    4.8051   -0.9266    3.1951 C   0  0  0  0  0  0  0  0  0  0  0  0
    5.1059   -0.2609    4.0182 H   0  0  0  0  0  0  0  0  0  0  0  0
    5.2732   -2.2503    3.1514 C   0  0  0  0  0  0  0  0  0  0  0  0
    5.9467   -2.6217    3.9389 H   0  0  0  0  0  0  0  0  0  0  0  0
    4.8755   -3.1053    2.1101 C   0  0  0  0  0  0  0  0  0  0  0  0
    5.2343   -4.1456    2.0826 H   0  0  0  0  0  0  0  0  0  0  0  0
    4.0176   -2.6390    1.1033 C   0  0  0  0  0  0  0  0  0  0  0  0
    3.6922   -3.3030    0.2890 H   0  0  0  0  0  0  0  0  0  0  0  0
   -0.2139   -0.9872   -0.4384 C   0  0  0  0  0  2  0  0  0  0  0  0
    0.5118   -2.0474   -1.0132 C   0  0  0  0  0  0  0  0  0  0  0  0
   -0.1495   -3.0909   -1.6776 C   0  0  0  0  0  0  0  0  0  0  0  0
    0.4298   -3.9112   -2.1257 H   0  0  0  0  0  0  0  0  0  0  0  0
   -1.5550   -3.0545   -1.7703 C   0  0  0  0  0  0  0  0  0  0  0  0
   -2.0759   -3.8631   -2.3040 H   0  0  0  0  0  0  0  0  0  0  0  0
   -2.3032   -2.0115   -1.2024 C   0  0  0  0  0  0  0  0  0  0  0  0
   -3.3962   -2.0080   -1.3033 H   0  0  0  0  0  0  0  0  0  0  0  0
   -1.6296   -0.9746   -0.5177 C   0  0  0  0  0  0  0  0  0  0  0  0
   -2.1832    0.2389    0.1077 C   0  0  0  0  0  0  0  0  0  0  0  0
   -3.4986    1.9908    0.8536 C   0  0  0  0  0  0  0  0  0  0  0  0
   -4.0112    1.9014    1.8348 H   0  0  0  0  0  0  0  0  0  0  0  0
   -4.0556    2.7340    0.2459 H   0  0  0  0  0  0  0  0  0  0  0  0
   -1.9885    2.3450    0.9908 C   0  0  2  0  0  0  0  0  0  0  0  0
   -1.7273    2.5810    2.0441 H   0  0  0  0  0  0  0  0  0  0  0  0
   -1.5102    3.5353    0.1217 C   0  0  0  0  0  0  0  0  0  0  0  0
   -0.4130    3.5795    0.2984 H   0  0  0  0  0  0  0  0  0  0  0  0
   -1.7453    3.3030   -1.3731 C   0  0  0  0  0  0  0  0  0  0  0  0
   -1.2504    2.3722   -1.7161 H   0  0  0  0  0  0  0  0  0  0  0  0
   -1.3293    4.1417   -1.9667 H   0  0  0  0  0  0  0  0  0  0  0  0
   -2.8263    3.2322   -1.6224 H   0  0  0  0  0  0  0  0  0  0  0  0
   -2.1304    4.8466    0.6126 C   0  0  0  0  0  0  0  0  0  0  0  0
   -1.7211    5.7089    0.0491 H   0  0  0  0  0  0  0  0  0  0  0  0
   -1.9199    5.0180    1.6884 H   0  0  0  0  0  0  0  0  0  0  0  0
   -3.2337    4.8632    0.4752 H   0  0  0  0  0  0  0  0  0  0  0  0
   -4.6591   -0.1178    0.1192 C   0  0  0  0  0  0  0  0  0  0  0  0
   -4.7500   -1.3510    0.7984 C   0  0  0  0  0  0  0  0  0  0  0  0
   -3.8866   -1.7162    1.3735 H   0  0  0  0  0  0  0  0  0  0  0  0
   -5.9269   -2.1038    0.7310 C   0  0  0  0  0  0  0  0  0  0  0  0
   -5.9768   -3.0691    1.2595 H   0  0  0  0  0  0  0  0  0  0  0  0
   -7.0555   -1.6442    0.0182 C   0  0  0  0  0  0  0  0  0  0  0  0
   -6.9576   -0.3982   -0.6325 C   0  0  0  0  0  0  0  0  0  0  0  0
   -7.8222   -0.0151   -1.1969 H   0  0  0  0  0  0  0  0  0  0  0  0
   -5.7778    0.3567   -0.5906 C   0  0  0  0  0  0  0  0  0  0  0  0
   -5.7126    1.3160   -1.1249 H   0  0  0  0  0  0  0  0  0  0  0  0
   -8.3220   -2.4607   -0.0285 C   0  0  0  0  0  0  0  0  0  0  0  0
   -9.0864   -1.9932   -0.6784 H   0  0  0  0  0  0  0  0  0  0  0  0
   -8.7638   -2.5754    0.9838 H   0  0  0  0  0  0  0  0  0  0  0  0
   -8.1292   -3.4845   -0.4106 H   0  0  0  0  0  0  0  0  0  0  0  0
  1 16  1  0  0  0  0
  2  1  1  0  0  0  0
  3 40  1  0  0  0  0
  4 37  1  0  0  0  0
  5  6  1  0  0  0  0
  5  1  1  0  0  0  0
  6  7  1  0  0  0  0
  8  9  1  0  0  0  0
  8  6  2  0  0  0  0
 10  8  1  0  0  0  0
 11 10  1  0  0  0  0
 12 10  2  0  0  0  0
 12 14  1  0  0  0  0
 13 12  1  0  0  0  0
 14  5  2  0  0  0  0
 15 14  1  0  0  0  0
 16 17  1  0  0  0  0
 17 18  1  0  0  0  0
 17 19  2  0  0  0  0
 19 20  1  0  0  0  0
 21 19  1  0  0  0  0
 21 22  1  0  0  0  0
 23 21  2  0  0  0  0
 24 23  1  0  0  0  0
 25 16  2  0  0  0  0
 25 23  1  0  0  0  0
 26 25  1  0  0  0  0
 28  2  1  0  0  0  0
 28 27  1  0  0  0  0
 29 28  2  0  0  0  0
 30 29  1  0  0  0  0
 31 29  1  0  0  0  0
 31 33  2  0  0  0  0
 32 31  1  0  0  0  0
 33 35  1  0  0  0  0
 34 33  1  0  0  0  0
 35 27  1  0  0  0  0
 35 36  2  0  0  0  0
 36  4  1  0  0  0  0
 36  3  1  0  0  0  0
 37 40  1  0  0  0  0
 37 38  1  0  0  0  0
 39 37  1  0  0  0  0
 40 41  1  1  0  0  0
 42 43  1  0  0  0  0
 42 48  1  0  0  0  0
 42 40  1  0  0  0  0
 44 42  1  0  0  0  0
 45 44  1  0  0  0  0
 46 44  1  0  0  0  0
 47 44  1  0  0  0  0
 48 50  1  0  0  0  0
 49 48  1  0  0  0  0
 51 48  1  0  0  0  0
 52  4  1  0  0  0  0
 52 53  1  0  0  0  0
 53 54  1  0  0  0  0
 55 53  2  0  0  0  0
 55 56  1  0  0  0  0
 57 55  1  0  0  0  0
 58 60  1  0  0  0  0
 58 57  2  0  0  0  0
 59 58  1  0  0  0  0
 60 52  2  0  0  0  0
 61 60  1  0  0  0  0
 62 57  1  0  0  0  0
 62 64  1  0  0  0  0
 63 62  1  0  0  0  0
 65 62  1  0  0  0  0
M  END
