1,2,3
 OpenBabel05122313063D

 65 68  0  0  0  0  0  0  0  0999 V2000
    2.0052   -0.2327    0.0855 P   0  0  0  0  0  0  0  0  0  0  0  0
    0.1652   -0.8583    1.8211 C   0  0  0  0  0  2  0  0  0  0  0  0
   -2.0295   -0.2393    0.6968 N   0  0  0  0  0  2  0  0  0  0  0  0
   -2.1977   -0.6818    1.9182 C   0  0  0  0  0  0  0  0  0  0  0  0
   -3.2059   -0.7150    2.3752 H   0  0  0  0  0  0  0  0  0  0  0  0
    1.4260   -1.1295    2.3802 C   0  0  0  0  0  0  0  0  0  0  0  0
    1.5579   -1.6131    3.6906 C   0  0  0  0  0  0  0  0  0  0  0  0
    2.5572   -1.8126    4.1042 H   0  0  0  0  0  0  0  0  0  0  0  0
   -0.9910   -1.0670    2.6200 C   0  0  0  0  0  0  0  0  0  0  0  0
   -0.8805   -1.5591    3.9400 C   0  0  0  0  0  0  0  0  0  0  0  0
   -1.7806   -1.7243    4.5517 H   0  0  0  0  0  0  0  0  0  0  0  0
    0.3939   -1.8301    4.4596 C   0  0  0  0  0  0  0  0  0  0  0  0
    0.4962   -2.2126    5.4859 H   0  0  0  0  0  0  0  0  0  0  0  0
    2.5261   -0.8909    1.5780 O   0  0  0  0  0  0  0  0  0  0  0  0
   -3.1177    0.2049   -0.1004 C   0  0  0  0  0  0  0  0  0  0  0  0
   -3.7891   -2.2357   -0.4873 C   0  0  0  0  0  0  0  0  0  0  0  0
   -3.5266   -2.4149    0.5776 H   0  0  0  0  0  0  0  0  0  0  0  0
   -4.0200   -0.7373   -0.6643 C   0  0  0  0  0  0  0  0  0  0  0  0
   -3.2100    1.5941   -0.3668 C   0  0  0  0  0  0  0  0  0  0  0  0
   -5.0639   -0.2345   -1.4617 C   0  0  0  0  0  0  0  0  0  0  0  0
   -5.7836   -0.9326   -1.9118 H   0  0  0  0  0  0  0  0  0  0  0  0
   -5.1975    1.1396   -1.7056 C   0  0  0  0  0  0  0  0  0  0  0  0
   -6.0254    1.5059   -2.3316 H   0  0  0  0  0  0  0  0  0  0  0  0
   -4.2718    2.0431   -1.1706 C   0  0  0  0  0  0  0  0  0  0  0  0
   -4.3707    3.1174   -1.3850 H   0  0  0  0  0  0  0  0  0  0  0  0
   -2.5801   -2.6814   -1.3320 C   0  0  0  0  0  0  0  0  0  0  0  0
   -2.7795   -2.5202   -2.4110 H   0  0  0  0  0  0  0  0  0  0  0  0
   -2.3597   -3.7564   -1.1708 H   0  0  0  0  0  0  0  0  0  0  0  0
   -1.6735   -2.0954   -1.0813 H   0  0  0  0  0  0  0  0  0  0  0  0
   -5.0203   -3.0963   -0.7899 C   0  0  0  0  0  0  0  0  0  0  0  0
   -5.9058   -2.7741   -0.2056 H   0  0  0  0  0  0  0  0  0  0  0  0
   -4.8133   -4.1566   -0.5417 H   0  0  0  0  0  0  0  0  0  0  0  0
   -5.2906   -3.0625   -1.8655 H   0  0  0  0  0  0  0  0  0  0  0  0
   -2.1967    2.5506    0.2449 C   0  0  0  0  0  0  0  0  0  0  0  0
   -1.2782    1.9486    0.4299 H   0  0  0  0  0  0  0  0  0  0  0  0
   -2.6852    3.0709    1.6075 C   0  0  0  0  0  0  0  0  0  0  0  0
   -3.6168    3.6639    1.4938 H   0  0  0  0  0  0  0  0  0  0  0  0
   -1.9194    3.7202    2.0797 H   0  0  0  0  0  0  0  0  0  0  0  0
   -2.9028    2.2381    2.3066 H   0  0  0  0  0  0  0  0  0  0  0  0
    2.7744    1.4258    0.1175 C   0  0  0  0  0  0  0  0  0  0  0  0
    2.1897    2.4649   -0.6337 C   0  0  0  0  0  0  0  0  0  0  0  0
    1.2815    2.2610   -1.2246 H   0  0  0  0  0  0  0  0  0  0  0  0
    2.7749    3.7398   -0.6190 C   0  0  0  0  0  0  0  0  0  0  0  0
    2.3197    4.5520   -1.2061 H   0  0  0  0  0  0  0  0  0  0  0  0
    3.9289    1.6637    0.8904 C   0  0  0  0  0  0  0  0  0  0  0  0
    4.3659    0.8507    1.4885 H   0  0  0  0  0  0  0  0  0  0  0  0
    3.9263    3.9812    0.1474 C   0  0  0  0  0  0  0  0  0  0  0  0
    4.3784    4.9847    0.1614 H   0  0  0  0  0  0  0  0  0  0  0  0
    4.4998    2.9441    0.9023 C   0  0  0  0  0  0  0  0  0  0  0  0
    5.3988    3.1344    1.5082 H   0  0  0  0  0  0  0  0  0  0  0  0
    2.9910   -1.2280   -1.0821 C   0  0  0  0  0  0  0  0  0  0  0  0
    2.7335   -1.0954   -2.4625 C   0  0  0  0  0  0  0  0  0  0  0  0
    1.9162   -0.4384   -2.8025 H   0  0  0  0  0  0  0  0  0  0  0  0
    3.9943   -2.1051   -0.6229 C   0  0  0  0  0  0  0  0  0  0  0  0
    4.1709   -2.2144    0.4565 H   0  0  0  0  0  0  0  0  0  0  0  0
    3.4980   -1.8306   -3.3790 C   0  0  0  0  0  0  0  0  0  0  0  0
    3.2962   -1.7313   -4.4563 H   0  0  0  0  0  0  0  0  0  0  0  0
    4.5072   -2.6970   -2.9273 C   0  0  0  0  0  0  0  0  0  0  0  0
    5.1025   -3.2738   -3.6515 H   0  0  0  0  0  0  0  0  0  0  0  0
    4.7504   -2.8356   -1.5515 C   0  0  0  0  0  0  0  0  0  0  0  0
    5.5342   -3.5214   -1.1952 H   0  0  0  0  0  0  0  0  0  0  0  0
   -1.7951    3.6899   -0.6974 C   0  0  0  0  0  0  0  0  0  0  0  0
   -1.4574    3.2825   -1.6705 H   0  0  0  0  0  0  0  0  0  0  0  0
   -0.9614    4.2735   -0.2558 H   0  0  0  0  0  0  0  0  0  0  0  0
   -2.6295    4.3988   -0.8803 H   0  0  0  0  0  0  0  0  0  0  0  0
  1 40  1  0  0  0  0
  1 14  1  0  0  0  0
  2  6  1  0  0  0  0
  2  9  1  0  0  0  0
  3  4  1  0  0  0  0
  4  5  1  0  0  0  0
  4  9  2  0  0  0  0
  6  7  2  0  0  0  0
  7  8  1  0  0  0  0
  7 12  1  0  0  0  0
  9 10  1  0  0  0  0
 10 12  2  0  0  0  0
 10 11  1  0  0  0  0
 12 13  1  0  0  0  0
 14  6  1  0  0  0  0
 15  3  1  0  0  0  0
 16 17  1  0  0  0  0
 18 16  1  0  0  0  0
 18 15  2  0  0  0  0
 19 15  1  0  0  0  0
 19 34  1  0  0  0  0
 20 18  1  0  0  0  0
 21 20  1  0  0  0  0
 22 20  2  0  0  0  0
 22 24  1  0  0  0  0
 23 22  1  0  0  0  0
 24 19  2  0  0  0  0
 25 24  1  0  0  0  0
 26 28  1  0  0  0  0
 26 29  1  0  0  0  0
 26 16  1  0  0  0  0
 27 26  1  0  0  0  0
 30 32  1  0  0  0  0
 30 16  1  0  0  0  0
 30 31  1  0  0  0  0
 33 30  1  0  0  0  0
 34 35  1  0  0  0  0
 34 36  1  0  0  0  0
 36 38  1  0  0  0  0
 36 39  1  0  0  0  0
 37 36  1  0  0  0  0
 40 45  1  0  0  0  0
 41 43  1  0  0  0  0
 41 40  2  0  0  0  0
 42 41  1  0  0  0  0
 43 47  2  0  0  0  0
 44 43  1  0  0  0  0
 45 49  2  0  0  0  0
 45 46  1  0  0  0  0
 47 48  1  0  0  0  0
 47 49  1  0  0  0  0
 49 50  1  0  0  0  0
 51 54  1  0  0  0  0
 51  1  1  0  0  0  0
 52 51  2  0  0  0  0
 53 52  1  0  0  0  0
 54 55  1  0  0  0  0
 56 58  2  0  0  0  0
 56 52  1  0  0  0  0
 57 56  1  0  0  0  0
 58 60  1  0  0  0  0
 59 58  1  0  0  0  0
 60 61  1  0  0  0  0
 60 54  2  0  0  0  0
 62 64  1  0  0  0  0
 62 34  1  0  0  0  0
 63 62  1  0  0  0  0
 65 62  1  0  0  0  0
M  END
