1,2,5
 OpenBabel05122313063D

 71 76  0  0  1  0  0  0  0  0999 V2000
    0.9495   -0.7861   -0.2093 P   0  0  0  0  0  0  0  0  0  0  0  0
   -2.0668    1.0627    0.2857 N   0  0  0  0  0  2  0  0  0  0  0  0
    2.9094    5.1691    0.0752 F   0  0  0  0  0  0  0  0  0  0  0  0
   -3.0740   -5.1148    0.1902 F   0  0  0  0  0  0  0  0  0  0  0  0
   -2.2157   -1.6007   -0.1446 C   0  0  0  0  0  3  0  0  0  0  0  0
   -3.1165    0.4172    0.8905 C   0  0  2  0  0  3  0  0  0  0  0  0
   -3.0961   -1.0384    0.8149 C   0  0  0  0  0  0  0  0  0  0  0  0
   -1.9778    2.4211    0.3504 C   0  0  0  0  0  0  0  0  0  0  0  0
   -2.2343   -2.9802   -0.3781 C   0  0  0  0  0  0  0  0  0  0  0  0
   -1.6332   -3.4314   -1.1800 H   0  0  0  0  0  0  0  0  0  0  0  0
   -4.1697    1.1514    1.4708 C   0  0  0  0  0  0  0  0  0  0  0  0
   -5.0084    0.6104    1.9267 H   0  0  0  0  0  0  0  0  0  0  0  0
    2.3414   -0.6899   -1.4602 C   0  0  0  0  0  0  0  0  0  0  0  0
    2.6173   -1.7349   -1.6913 H   0  0  0  0  0  0  0  0  0  0  0  0
    1.8635   -0.2405   -2.3527 H   0  0  0  0  0  0  0  0  0  0  0  0
    0.9192   -2.5453    0.4089 C   0  0  0  0  0  0  0  0  0  0  0  0
    0.2379   -2.5507    1.2828 H   0  0  0  0  0  0  0  0  0  0  0  0
    0.4166   -3.1004   -0.4050 H   0  0  0  0  0  0  0  0  0  0  0  0
    1.5612    0.2210    1.2160 C   0  0  0  0  0  0  0  0  0  0  0  0
    2.4218   -0.3461    1.6269 H   0  0  0  0  0  0  0  0  0  0  0  0
    1.9849    1.1248    0.7422 H   0  0  0  0  0  0  0  0  0  0  0  0
   -0.6730    3.1113    0.1805 C   0  0  0  0  0  0  0  0  0  0  0  0
    0.3049    2.8680    1.1794 C   0  0  0  0  0  0  0  0  0  0  0  0
    4.5969    2.2890   -0.6802 C   0  0  0  0  0  0  0  0  0  0  0  0
    4.5680    3.3833   -0.7898 H   0  0  0  0  0  0  0  0  0  0  0  0
   -0.4483    4.0898   -0.8048 C   0  0  0  0  0  0  0  0  0  0  0  0
   -1.2145    4.2643   -1.5727 H   0  0  0  0  0  0  0  0  0  0  0  0
    3.5291    0.1136   -1.0008 C   0  0  0  0  0  0  0  0  0  0  0  0
   -3.0716   -3.7873    0.4020 C   0  0  0  0  0  0  0  0  0  0  0  0
    0.1529   -0.3275    3.2600 C   0  0  0  0  0  0  0  0  0  0  0  0
    0.5792   -1.3419    3.2647 H   0  0  0  0  0  0  0  0  0  0  0  0
    4.6304   -0.5012   -0.3703 C   0  0  0  0  0  0  0  0  0  0  0  0
    4.6440   -1.5943   -0.2416 H   0  0  0  0  0  0  0  0  0  0  0  0
    0.5594    0.5904    2.2702 C   0  0  0  0  0  0  0  0  0  0  0  0
   -3.9290   -1.8786    1.5861 C   0  0  0  0  0  0  0  0  0  0  0  0
   -4.5958   -1.4503    2.3492 H   0  0  0  0  0  0  0  0  0  0  0  0
    5.7041    0.2717    0.0977 C   0  0  0  0  0  0  0  0  0  0  0  0
    6.5582   -0.2231    0.5852 H   0  0  0  0  0  0  0  0  0  0  0  0
    0.0027    1.8939    2.2750 C   0  0  0  0  0  0  0  0  0  0  0  0
    5.6883    1.6682   -0.0499 C   0  0  0  0  0  0  0  0  0  0  0  0
    6.5277    2.2734    0.3254 H   0  0  0  0  0  0  0  0  0  0  0  0
    3.5264    1.5174   -1.1557 C   0  0  0  0  0  0  0  0  0  0  0  0
    2.6549    1.9922   -1.6355 H   0  0  0  0  0  0  0  0  0  0  0  0
   -3.9100   -3.2620    1.3977 C   0  0  0  0  0  0  0  0  0  0  0  0
   -4.5407   -3.9394    1.9897 H   0  0  0  0  0  0  0  0  0  0  0  0
   -3.0565    3.1801    0.8307 C   0  0  0  0  0  0  0  0  0  0  0  0
   -2.9566    4.2742    0.8374 H   0  0  0  0  0  0  0  0  0  0  0  0
   -0.7832    0.0262    4.2403 C   0  0  0  0  0  0  0  0  0  0  0  0
   -1.0903   -0.7113    4.9968 H   0  0  0  0  0  0  0  0  0  0  0  0
    2.9125   -2.9419    1.9490 C   0  0  0  0  0  0  0  0  0  0  0  0
    2.3983   -2.3928    2.7523 H   0  0  0  0  0  0  0  0  0  0  0  0
    1.7328    4.5111    0.1193 C   0  0  0  0  0  0  0  0  0  0  0  0
    2.2711   -3.1319    0.7063 C   0  0  0  0  0  0  0  0  0  0  0  0
    0.7591    4.7933   -0.8459 C   0  0  0  0  0  0  0  0  0  0  0  0
    0.9678    5.5379   -1.6263 H   0  0  0  0  0  0  0  0  0  0  0  0
    1.5227    3.5736    1.1349 C   0  0  0  0  0  0  0  0  0  0  0  0
    2.3024    3.4105    1.8922 H   0  0  0  0  0  0  0  0  0  0  0  0
    4.1969   -3.4551    2.1829 C   0  0  0  0  0  0  0  0  0  0  0  0
    4.6787   -3.2928    3.1589 H   0  0  0  0  0  0  0  0  0  0  0  0
   -4.1745    2.5405    1.3801 C   0  0  0  0  0  0  0  0  0  0  0  0
   -5.0210    3.1254    1.7693 H   0  0  0  0  0  0  0  0  0  0  0  0
   -1.3156    1.3240    4.2565 C   0  0  0  0  0  0  0  0  0  0  0  0
   -2.0405    1.6186    5.0301 H   0  0  0  0  0  0  0  0  0  0  0  0
   -0.9186    2.2484    3.2809 C   0  0  0  0  0  0  0  0  0  0  0  0
   -1.3357    3.2663    3.2838 H   0  0  0  0  0  0  0  0  0  0  0  0
    2.9452   -3.8775   -0.2862 C   0  0  0  0  0  0  0  0  0  0  0  0
    2.4474   -4.0589   -1.2520 H   0  0  0  0  0  0  0  0  0  0  0  0
    4.8628   -4.1768    1.1798 C   0  0  0  0  0  0  0  0  0  0  0  0
    5.8707   -4.5785    1.3627 H   0  0  0  0  0  0  0  0  0  0  0  0
    4.2278   -4.3945   -0.0536 C   0  0  0  0  0  0  0  0  0  0  0  0
    4.7336   -4.9729   -0.8414 H   0  0  0  0  0  0  0  0  0  0  0  0
  1 16  1  0  0  0  0
  1 19  1  0  0  0  0
  2  8  1  0  0  0  0
  2  6  1  0  0  0  0
  3 52  1  0  0  0  0
  4 29  1  0  0  0  0
  5  7  1  0  0  0  0
  6  7  1  6  0  0  0
  6 11  1  0  0  0  0
  7 35  2  0  0  0  0
  8 46  2  0  0  0  0
  9  5  2  0  0  0  0
  9 29  1  0  0  0  0
 10  9  1  0  0  0  0
 11 12  1  0  0  0  0
 13 28  1  0  0  0  0
 13  1  1  0  0  0  0
 14 13  1  0  0  0  0
 15 13  1  0  0  0  0
 16 53  1  0  0  0  0
 16 17  1  0  0  0  0
 18 16  1  0  0  0  0
 19 20  1  0  0  0  0
 19 34  1  0  0  0  0
 21 19  1  0  0  0  0
 22  8  1  0  0  0  0
 22 23  1  0  0  0  0
 23 39  1  0  0  0  0
 24 40  1  0  0  0  0
 25 24  1  0  0  0  0
 26 22  2  0  0  0  0
 27 26  1  0  0  0  0
 28 32  2  0  0  0  0
 29 44  2  0  0  0  0
 30 31  1  0  0  0  0
 30 48  1  0  0  0  0
 32 33  1  0  0  0  0
 32 37  1  0  0  0  0
 34 39  1  0  0  0  0
 34 30  2  0  0  0  0
 35 36  1  0  0  0  0
 37 38  1  0  0  0  0
 39 64  2  0  0  0  0
 40 37  2  0  0  0  0
 40 41  1  0  0  0  0
 42 28  1  0  0  0  0
 42 24  2  0  0  0  0
 43 42  1  0  0  0  0
 44 35  1  0  0  0  0
 44 45  1  0  0  0  0
 46 47  1  0  0  0  0
 46 60  1  0  0  0  0
 48 62  2  0  0  0  0
 48 49  1  0  0  0  0
 50 58  1  0  0  0  0
 50 51  1  0  0  0  0
 52 56  1  0  0  0  0
 53 50  2  0  0  0  0
 54 26  1  0  0  0  0
 54 52  2  0  0  0  0
 55 54  1  0  0  0  0
 56 23  2  0  0  0  0
 56 57  1  0  0  0  0
 58 59  1  0  0  0  0
 60 11  2  0  0  0  0
 60 61  1  0  0  0  0
 62 63  1  0  0  0  0
 64 65  1  0  0  0  0
 64 62  1  0  0  0  0
 66 70  2  0  0  0  0
 66 53  1  0  0  0  0
 67 66  1  0  0  0  0
 68 69  1  0  0  0  0
 68 58  2  0  0  0  0
 70 68  1  0  0  0  0
 71 70  1  0  0  0  0
M  END
