1,2,23
 OpenBabel05122313063D

 53 56  0  0  0  0  0  0  0  0999 V2000
    0.0231    1.1783   -0.2698 P   0  0  0  0  0  0  0  0  0  0  0  0
   -1.2133   -1.1050    1.1802 N   0  0  0  0  0  2  0  0  0  0  0  0
   -2.3188   -0.6554    0.5374 N   0  0  0  0  0  0  0  0  0  0  0  0
   -3.7500   -0.2934   -1.4848 N   0  0  0  0  0  0  0  0  0  0  0  0
   -4.4443   -1.4090   -1.7882 N   0  0  0  0  0  0  0  0  0  0  0  0
   -3.9544   -2.3092   -1.7775 H   0  0  0  0  0  0  0  0  0  0  0  0
   -2.2347   -0.3890   -1.0100 B   0  0  2  0  0  0  0  0  0  0  0  0
   -3.3491   -0.5904    1.4209 C   0  0  0  0  0  3  0  0  0  0  0  0
   -4.3414   -0.2483    1.1080 H   0  0  0  0  0  0  0  0  0  0  0  0
   -2.8906   -1.0135    2.6722 C   0  0  0  0  0  0  0  0  0  0  0  0
   -3.4622   -1.0845    3.6023 H   0  0  0  0  0  0  0  0  0  0  0  0
   -1.5345   -1.3226    2.4738 C   0  0  0  0  0  0  0  0  0  0  0  0
   -0.7556   -1.6412    3.1766 H   0  0  0  0  0  0  0  0  0  0  0  0
   -5.7282   -1.1192   -2.0959 C   0  0  0  0  0  3  0  0  0  0  0  0
   -6.4371   -1.9049   -2.3796 H   0  0  0  0  0  0  0  0  0  0  0  0
   -5.8742    0.2664   -1.9802 C   0  0  0  0  0  0  0  0  0  0  0  0
   -6.7798    0.8535   -2.1599 H   0  0  0  0  0  0  0  0  0  0  0  0
   -4.6080    0.7419   -1.5946 C   0  0  0  0  0  0  0  0  0  0  0  0
   -4.2688    1.7613   -1.3847 H   0  0  0  0  0  0  0  0  0  0  0  0
   -1.5315   -1.6727   -1.7065 C   0  0  0  0  0  0  0  0  0  0  0  0
   -1.8968   -2.6203   -1.2394 H   0  0  0  0  0  0  0  0  0  0  0  0
   -1.8191   -1.7217   -2.7852 H   0  0  0  0  0  0  0  0  0  0  0  0
    0.0015   -1.6710   -1.6358 C   0  0  0  0  0  3  0  0  0  0  0  0
    0.3762   -0.8791   -2.3215 H   0  0  0  0  0  0  0  0  0  0  0  0
    0.5486   -3.0136   -2.1274 C   0  0  0  0  0  0  0  0  0  0  0  0
    0.1330   -3.8574   -1.5389 H   0  0  0  0  0  0  0  0  0  0  0  0
    1.6521   -3.0915   -2.0709 H   0  0  0  0  0  0  0  0  0  0  0  0
    0.2622   -3.1918   -3.1880 H   0  0  0  0  0  0  0  0  0  0  0  0
   -1.4568    0.9956   -1.3629 C   0  0  0  0  0  0  0  0  0  0  0  0
   -2.0500    1.9209   -1.2288 H   0  0  0  0  0  0  0  0  0  0  0  0
   -1.1223    0.9711   -2.4190 H   0  0  0  0  0  0  0  0  0  0  0  0
   -0.6156    2.2332    1.0968 C   0  0  0  0  0  0  0  0  0  0  0  0
   -1.2751    3.4373    0.7535 C   0  0  0  0  0  0  0  0  0  0  0  0
   -1.3631    3.7463   -0.3003 H   0  0  0  0  0  0  0  0  0  0  0  0
   -1.7954    4.2661    1.7545 C   0  0  0  0  0  0  0  0  0  0  0  0
   -2.3010    5.2040    1.4790 H   0  0  0  0  0  0  0  0  0  0  0  0
   -1.6625    3.9045    3.1069 C   0  0  0  0  0  0  0  0  0  0  0  0
   -2.0729    4.5560    3.8930 H   0  0  0  0  0  0  0  0  0  0  0  0
   -0.9930    2.7221    3.4490 C   0  0  0  0  0  0  0  0  0  0  0  0
   -0.8689    2.4419    4.5058 H   0  0  0  0  0  0  0  0  0  0  0  0
   -0.4638    1.8857    2.4510 C   0  0  0  0  0  0  0  0  0  0  0  0
    0.0988    0.9811    2.7271 H   0  0  0  0  0  0  0  0  0  0  0  0
    1.1577    2.3121   -1.1696 C   0  0  0  0  0  0  0  0  0  0  0  0
    1.3549    2.1935   -2.5613 C   0  0  0  0  0  0  0  0  0  0  0  0
    0.7946    1.4460   -3.1436 H   0  0  0  0  0  0  0  0  0  0  0  0
    2.2626    3.0353   -3.2230 C   0  0  0  0  0  0  0  0  0  0  0  0
    2.4035    2.9380   -4.3099 H   0  0  0  0  0  0  0  0  0  0  0  0
    2.9811    4.0024   -2.5025 C   0  0  0  0  0  0  0  0  0  0  0  0
    3.6894    4.6640   -3.0230 H   0  0  0  0  0  0  0  0  0  0  0  0
    2.7843    4.1304   -1.1182 C   0  0  0  0  0  0  0  0  0  0  0  0
    3.3372    4.8928   -0.5495 H   0  0  0  0  0  0  0  0  0  0  0  0
    1.8778    3.2920   -0.4523 C   0  0  0  0  0  0  0  0  0  0  0  0
    1.7239    3.4017    0.6317 H   0  0  0  0  0  0  0  0  0  0  0  0
  1 32  1  0  0  0  0
  2 12  1  0  0  0  0
  3  2  1  0  0  0  0
  3  8  1  0  0  0  0
  4  7  1  0  0  0  0
  5  6  1  0  0  0  0
  5  4  1  0  0  0  0
  7 20  1  6  0  0  0
  7  3  1  0  0  0  0
  8 10  1  0  0  0  0
  9  8  1  0  0  0  0
 10 11  1  0  0  0  0
 12 10  2  0  0  0  0
 12 13  1  0  0  0  0
 14 16  1  0  0  0  0
 14  5  1  0  0  0  0
 15 14  1  0  0  0  0
 16 18  2  0  0  0  0
 17 16  1  0  0  0  0
 18  4  1  0  0  0  0
 18 19  1  0  0  0  0
 20 23  1  0  0  0  0
 20 21  1  0  0  0  0
 22 20  1  0  0  0  0
 24 23  1  0  0  0  0
 25 27  1  0  0  0  0
 25 23  1  0  0  0  0
 25 26  1  0  0  0  0
 28 25  1  0  0  0  0
 29 30  1  0  0  0  0
 29  7  1  0  0  0  0
 29  1  1  0  0  0  0
 31 29  1  0  0  0  0
 32 41  1  0  0  0  0
 33 32  2  0  0  0  0
 33 35  1  0  0  0  0
 34 33  1  0  0  0  0
 35 37  2  0  0  0  0
 36 35  1  0  0  0  0
 37 39  1  0  0  0  0
 37 38  1  0  0  0  0
 39 40  1  0  0  0  0
 41 42  1  0  0  0  0
 41 39  2  0  0  0  0
 43 52  1  0  0  0  0
 43  1  1  0  0  0  0
 44 43  2  0  0  0  0
 45 44  1  0  0  0  0
 46 44  1  0  0  0  0
 46 48  2  0  0  0  0
 47 46  1  0  0  0  0
 48 50  1  0  0  0  0
 49 48  1  0  0  0  0
 50 51  1  0  0  0  0
 50 52  2  0  0  0  0
 52 53  1  0  0  0  0
M  END
