1,3,21
 OpenBabel05122313063D

 47 48  0  0  0  0  0  0  0  0999 V2000
   -2.4836   -0.5446   -0.1709 N   0  0  0  0  0  2  0  0  0  0  0  0
    1.6016    1.9163   -0.1363 O   0  0  0  0  0  0  0  0  0  0  0  0
    1.7782    0.1949   -0.0774 P   0  0  0  0  0  0  0  0  0  0  0  0
   -3.2595   -1.6421   -0.2878 C   0  0  0  0  0  3  0  0  0  0  0  0
   -2.7034   -2.5931   -0.3678 H   0  0  0  0  0  0  0  0  0  0  0  0
   -4.6552   -1.5666   -0.3004 C   0  0  0  0  0  0  0  0  0  0  0  0
   -5.2520   -2.4839   -0.3997 H   0  0  0  0  0  0  0  0  0  0  0  0
   -5.2592   -0.3014   -0.1877 C   0  0  0  0  0  0  0  0  0  0  0  0
   -6.3554   -0.2037   -0.1929 H   0  0  0  0  0  0  0  0  0  0  0  0
   -4.4553    0.8355   -0.0731 C   0  0  0  0  0  0  0  0  0  0  0  0
   -4.9043    1.8346    0.0119 H   0  0  0  0  0  0  0  0  0  0  0  0
   -3.0499    0.7108   -0.0706 C   0  0  0  0  0  0  0  0  0  0  0  0
   -2.0881    1.8096    0.0110 C   0  0  0  0  0  0  0  0  0  0  0  0
   -2.3958    3.1912    0.0820 C   0  0  0  0  0  0  0  0  0  0  0  0
   -3.4403    3.5362    0.1180 H   0  0  0  0  0  0  0  0  0  0  0  0
   -1.3561    4.1270    0.0959 C   0  0  0  0  0  0  0  0  0  0  0  0
   -1.5895    5.2006    0.1510 H   0  0  0  0  0  0  0  0  0  0  0  0
   -0.0021    3.7214    0.0287 C   0  0  0  0  0  0  0  0  0  0  0  0
    0.8115    4.4617    0.0245 H   0  0  0  0  0  0  0  0  0  0  0  0
    0.2987    2.3568   -0.0415 C   0  0  0  0  0  0  0  0  0  0  0  0
   -0.7333    1.3880   -0.0282 C   0  0  0  0  0  3  0  0  0  0  0  0
    2.8978   -0.0642   -1.5866 C   0  0  0  0  0  0  0  0  0  0  0  0
    1.9943    0.0036   -2.8337 C   0  0  0  0  0  0  0  0  0  0  0  0
    2.6350   -0.0630   -3.7382 H   0  0  0  0  0  0  0  0  0  0  0  0
    1.4308    0.9567   -2.8839 H   0  0  0  0  0  0  0  0  0  0  0  0
    1.2711   -0.8331   -2.8600 H   0  0  0  0  0  0  0  0  0  0  0  0
    3.9773    1.0247   -1.7191 C   0  0  0  0  0  0  0  0  0  0  0  0
    4.7385    0.9796   -0.9215 H   0  0  0  0  0  0  0  0  0  0  0  0
    3.5263    2.0355   -1.7136 H   0  0  0  0  0  0  0  0  0  0  0  0
    4.5027    0.8867   -2.6876 H   0  0  0  0  0  0  0  0  0  0  0  0
    3.5101   -1.4725   -1.4840 C   0  0  0  0  0  0  0  0  0  0  0  0
    3.9926   -1.7312   -2.4501 H   0  0  0  0  0  0  0  0  0  0  0  0
    2.7349   -2.2391   -1.2748 H   0  0  0  0  0  0  0  0  0  0  0  0
    4.2892   -1.5341   -0.6994 H   0  0  0  0  0  0  0  0  0  0  0  0
    2.7160    0.0178    1.5672 C   0  0  0  0  0  0  0  0  0  0  0  0
    1.8362    0.7314    2.6156 C   0  0  0  0  0  0  0  0  0  0  0  0
    2.3232    0.6258    3.6081 H   0  0  0  0  0  0  0  0  0  0  0  0
    0.8300    0.2794    2.6812 H   0  0  0  0  0  0  0  0  0  0  0  0
    1.7381    1.8123    2.3976 H   0  0  0  0  0  0  0  0  0  0  0  0
    2.8221   -1.4804    1.9086 C   0  0  0  0  0  0  0  0  0  0  0  0
    3.5463   -2.0074    1.2591 H   0  0  0  0  0  0  0  0  0  0  0  0
    1.8502   -2.0012    1.8150 H   0  0  0  0  0  0  0  0  0  0  0  0
    3.1728   -1.5865    2.9569 H   0  0  0  0  0  0  0  0  0  0  0  0
    4.1040    0.6738    1.5617 C   0  0  0  0  0  0  0  0  0  0  0  0
    4.5088    0.6552    2.5961 H   0  0  0  0  0  0  0  0  0  0  0  0
    4.0561    1.7319    1.2383 H   0  0  0  0  0  0  0  0  0  0  0  0
    4.8264    0.1338    0.9201 H   0  0  0  0  0  0  0  0  0  0  0  0
  1 12  1  0  0  0  0
  2  3  1  0  0  0  0
  2 20  1  0  0  0  0
  3 35  1  0  0  0  0
  4  1  1  0  0  0  0
  5  4  1  0  0  0  0
  6  4  1  0  0  0  0
  6  8  2  0  0  0  0
  7  6  1  0  0  0  0
  8 10  1  0  0  0  0
  9  8  1  0  0  0  0
 10 12  2  0  0  0  0
 10 11  1  0  0  0  0
 12 13  1  0  0  0  0
 13 14  1  0  0  0  0
 14 16  2  0  0  0  0
 14 15  1  0  0  0  0
 16 17  1  0  0  0  0
 18 16  1  0  0  0  0
 19 18  1  0  0  0  0
 20 21  1  0  0  0  0
 20 18  2  0  0  0  0
 21 13  2  0  0  0  0
 22 31  1  0  0  0  0
 22  3  1  0  0  0  0
 23 22  1  0  0  0  0
 24 23  1  0  0  0  0
 25 23  1  0  0  0  0
 26 23  1  0  0  0  0
 27 29  1  0  0  0  0
 27 22  1  0  0  0  0
 27 28  1  0  0  0  0
 30 27  1  0  0  0  0
 31 33  1  0  0  0  0
 31 34  1  0  0  0  0
 32 31  1  0  0  0  0
 35 40  1  0  0  0  0
 35 36  1  0  0  0  0
 36 38  1  0  0  0  0
 36 37  1  0  0  0  0
 39 36  1  0  0  0  0
 40 43  1  0  0  0  0
 41 40  1  0  0  0  0
 42 40  1  0  0  0  0
 44 35  1  0  0  0  0
 44 45  1  0  0  0  0
 46 44  1  0  0  0  0
 47 44  1  0  0  0  0
M  END
