1,2,17
 OpenBabel05122313063D

 54 54  0  0  0  0  0  0  0  0999 V2000
   -0.7384    1.6653   -0.0469 P   0  0  0  0  0  0  0  0  0  0  0  0
   -2.1475   -0.8320    0.2343 C   0  0  0  0  0  3  0  0  0  0  0  0
   -2.6010   -2.0948    0.7014 C   0  0  0  0  0  0  0  0  0  0  0  0
   -3.8888   -2.2386    1.2562 C   0  0  0  0  0  0  0  0  0  0  0  0
   -4.2117   -3.2309    1.6125 H   0  0  0  0  0  0  0  0  0  0  0  0
   -4.7586   -1.1456    1.3626 C   0  0  0  0  0  0  0  0  0  0  0  0
   -5.7605   -1.2713    1.8004 H   0  0  0  0  0  0  0  0  0  0  0  0
   -4.3368    0.1084    0.9018 C   0  0  0  0  0  0  0  0  0  0  0  0
   -5.0093    0.9784    0.9768 H   0  0  0  0  0  0  0  0  0  0  0  0
   -3.0536    0.2635    0.3454 C   0  0  0  0  0  0  0  0  0  0  0  0
   -1.7205   -3.3193    0.5846 C   0  0  0  0  0  0  0  0  0  0  0  0
   -2.3205   -4.2284    0.7918 H   0  0  0  0  0  0  0  0  0  0  0  0
   -0.9194   -3.3072    1.3568 H   0  0  0  0  0  0  0  0  0  0  0  0
   -1.0965   -3.4601   -0.8010 C   0  0  0  0  0  0  0  0  0  0  0  0
   -0.8199   -4.5205   -1.0064 H   0  0  0  0  0  0  0  0  0  0  0  0
   -1.8406   -3.1555   -1.5634 H   0  0  0  0  0  0  0  0  0  0  0  0
    0.1202   -2.6284   -1.0067 N   0  0  0  0  0  0  0  0  0  0  0  0
    1.2708   -3.2574   -0.3195 C   0  0  0  0  0  0  0  0  0  0  0  0
    1.0767   -3.3241    0.7654 H   0  0  0  0  0  0  0  0  0  0  0  0
    2.1703   -2.6373   -0.4702 H   0  0  0  0  0  0  0  0  0  0  0  0
    1.4422   -4.2809   -0.7238 H   0  0  0  0  0  0  0  0  0  0  0  0
    0.4063   -2.5633   -2.4598 C   0  0  0  0  0  0  0  0  0  0  0  0
    1.3434   -2.0098   -2.6407 H   0  0  0  0  0  0  0  0  0  0  0  0
   -0.4222   -2.0420   -2.9738 H   0  0  0  0  0  0  0  0  0  0  0  0
    0.5085   -3.5921   -2.8757 H   0  0  0  0  0  0  0  0  0  0  0  0
   -2.5959    1.6153   -0.1393 C   0  0  0  0  0  0  0  0  0  0  0  0
   -3.0665    2.4582    0.4062 H   0  0  0  0  0  0  0  0  0  0  0  0
   -2.8515    1.7474   -1.2126 H   0  0  0  0  0  0  0  0  0  0  0  0
   -0.2596    2.8377   -1.4754 C   0  0  0  0  0  0  0  0  0  0  0  0
   -0.3508    2.3892    1.6744 C   0  0  0  0  0  0  0  0  0  0  0  0
   -1.1752    4.0759   -1.5314 C   0  0  0  0  0  0  0  0  0  0  0  0
   -1.0931    4.7131   -0.6324 H   0  0  0  0  0  0  0  0  0  0  0  0
   -2.2408    3.8111   -1.6741 H   0  0  0  0  0  0  0  0  0  0  0  0
   -0.8738    4.6942   -2.4034 H   0  0  0  0  0  0  0  0  0  0  0  0
   -0.4577    2.0224   -2.7698 C   0  0  0  0  0  0  0  0  0  0  0  0
   -0.2513    2.6786   -3.6413 H   0  0  0  0  0  0  0  0  0  0  0  0
   -1.4951    1.6450   -2.8721 H   0  0  0  0  0  0  0  0  0  0  0  0
    0.2262    1.1572   -2.8259 H   0  0  0  0  0  0  0  0  0  0  0  0
    1.2068    3.2852   -1.3596 C   0  0  0  0  0  0  0  0  0  0  0  0
    1.5180    3.7591   -2.3137 H   0  0  0  0  0  0  0  0  0  0  0  0
    1.8888    2.4372   -1.1645 H   0  0  0  0  0  0  0  0  0  0  0  0
    1.3423    4.0361   -0.5573 H   0  0  0  0  0  0  0  0  0  0  0  0
    1.1668    2.4219    1.9179 C   0  0  0  0  0  0  0  0  0  0  0  0
    1.6846    3.1595    1.2788 H   0  0  0  0  0  0  0  0  0  0  0  0
    1.6377    1.4358    1.7555 H   0  0  0  0  0  0  0  0  0  0  0  0
    1.3497    2.7104    2.9747 H   0  0  0  0  0  0  0  0  0  0  0  0
   -0.9973    1.4163    2.6819 C   0  0  0  0  0  0  0  0  0  0  0  0
   -0.7369    1.7456    3.7099 H   0  0  0  0  0  0  0  0  0  0  0  0
   -0.6242    0.3831    2.5394 H   0  0  0  0  0  0  0  0  0  0  0  0
   -2.1013    1.3859    2.6010 H   0  0  0  0  0  0  0  0  0  0  0  0
   -0.9349    3.7975    1.8704 C   0  0  0  0  0  0  0  0  0  0  0  0
   -2.0174    3.8542    1.6404 H   0  0  0  0  0  0  0  0  0  0  0  0
   -0.4052    4.5564    1.2633 H   0  0  0  0  0  0  0  0  0  0  0  0
   -0.8102    4.0878    2.9351 H   0  0  0  0  0  0  0  0  0  0  0  0
  1 30  1  0  0  0  0
  2 10  2  0  0  0  0
  2  3  1  0  0  0  0
  3  4  2  0  0  0  0
  4  6  1  0  0  0  0
  4  5  1  0  0  0  0
  6  7  1  0  0  0  0
  8  9  1  0  0  0  0
  8  6  2  0  0  0  0
 10  8  1  0  0  0  0
 11  3  1  0  0  0  0
 11 12  1  0  0  0  0
 11 13  1  0  0  0  0
 14 11  1  0  0  0  0
 15 14  1  0  0  0  0
 16 14  1  0  0  0  0
 17 14  1  0  0  0  0
 17 18  1  0  0  0  0
 18 19  1  0  0  0  0
 20 18  1  0  0  0  0
 21 18  1  0  0  0  0
 22 17  1  0  0  0  0
 23 22  1  0  0  0  0
 24 22  1  0  0  0  0
 25 22  1  0  0  0  0
 26  1  1  0  0  0  0
 26 10  1  0  0  0  0
 26 27  1  0  0  0  0
 28 26  1  0  0  0  0
 29 39  1  0  0  0  0
 29  1  1  0  0  0  0
 30 51  1  0  0  0  0
 30 43  1  0  0  0  0
 30 47  1  0  0  0  0
 31 29  1  0  0  0  0
 31 32  1  0  0  0  0
 33 31  1  0  0  0  0
 34 31  1  0  0  0  0
 35 29  1  0  0  0  0
 36 35  1  0  0  0  0
 37 35  1  0  0  0  0
 38 35  1  0  0  0  0
 39 41  1  0  0  0  0
 39 42  1  0  0  0  0
 40 39  1  0  0  0  0
 43 46  1  0  0  0  0
 44 43  1  0  0  0  0
 45 43  1  0  0  0  0
 47 48  1  0  0  0  0
 49 47  1  0  0  0  0
 50 47  1  0  0  0  0
 51 54  1  0  0  0  0
 52 51  1  0  0  0  0
 53 51  1  0  0  0  0
M  END
