1,3,4
 OpenBabel05122313063D

 50 51  0  0  0  0  0  0  0  0999 V2000
    1.9258   -0.2566    0.4927 P   0  0  0  0  0  0  0  0  0  0  0  0
    2.4538    1.3177    0.9264 O   0  0  0  0  0  0  0  0  0  0  0  0
   -1.4950    0.6547   -1.6053 N   0  0  0  0  0  0  0  0  0  0  0  0
    0.3735    1.7611   -0.1476 C   0  0  0  0  0  3  0  0  0  0  0  0
    1.5223    2.2519    0.5131 C   0  0  0  0  0  0  0  0  0  0  0  0
    1.7126    3.6205    0.7418 C   0  0  0  0  0  0  0  0  0  0  0  0
    2.6169    3.9725    1.2591 H   0  0  0  0  0  0  0  0  0  0  0  0
    0.7275    4.5188    0.2867 C   0  0  0  0  0  0  0  0  0  0  0  0
    0.8685    5.5978    0.4516 H   0  0  0  0  0  0  0  0  0  0  0  0
   -0.4264    4.0610   -0.3719 C   0  0  0  0  0  0  0  0  0  0  0  0
   -1.1865    4.7799   -0.7164 H   0  0  0  0  0  0  0  0  0  0  0  0
   -0.6054    2.6798   -0.5806 C   0  0  0  0  0  0  0  0  0  0  0  0
   -1.8291    2.0467   -1.1820 C   0  0  0  0  0  0  0  0  0  0  0  0
   -2.6233    1.9601   -0.4095 H   0  0  0  0  0  0  0  0  0  0  0  0
   -2.2649    2.6297   -2.0248 H   0  0  0  0  0  0  0  0  0  0  0  0
    1.8503   -1.0522    2.1689 C   0  0  0  0  0  0  0  0  0  0  0  0
    2.8180   -0.7775    2.6441 H   0  0  0  0  0  0  0  0  0  0  0  0
    0.7081   -0.4180    2.9721 C   0  0  0  0  0  0  0  0  0  0  0  0
   -0.2757   -0.6415    2.5127 H   0  0  0  0  0  0  0  0  0  0  0  0
    0.8097    0.6833    3.0284 H   0  0  0  0  0  0  0  0  0  0  0  0
    0.7050   -0.8176    4.0072 H   0  0  0  0  0  0  0  0  0  0  0  0
    1.7316   -2.5765    2.0633 C   0  0  0  0  0  0  0  0  0  0  0  0
    1.6393   -3.0167    3.0776 H   0  0  0  0  0  0  0  0  0  0  0  0
    2.6161   -3.0347    1.5777 H   0  0  0  0  0  0  0  0  0  0  0  0
    0.8406   -2.8699    1.4714 H   0  0  0  0  0  0  0  0  0  0  0  0
    3.4293   -0.9037   -0.3753 C   0  0  0  0  0  0  0  0  0  0  0  0
    3.1683   -1.9672   -0.5717 H   0  0  0  0  0  0  0  0  0  0  0  0
    4.6945   -0.8021    0.4827 C   0  0  0  0  0  0  0  0  0  0  0  0
    5.5716   -1.1558   -0.0975 H   0  0  0  0  0  0  0  0  0  0  0  0
    4.6354   -1.4177    1.4020 H   0  0  0  0  0  0  0  0  0  0  0  0
    4.8841    0.2488    0.7804 H   0  0  0  0  0  0  0  0  0  0  0  0
    3.5610   -0.1790   -1.7209 C   0  0  0  0  0  0  0  0  0  0  0  0
    3.7104    0.9100   -1.5735 H   0  0  0  0  0  0  0  0  0  0  0  0
    2.6540   -0.3291   -2.3388 H   0  0  0  0  0  0  0  0  0  0  0  0
    4.4334   -0.5728   -2.2815 H   0  0  0  0  0  0  0  0  0  0  0  0
   -2.6822   -0.2340   -1.7096 C   0  0  0  0  0  0  0  0  0  0  0  0
   -2.3043   -1.2088   -2.0828 H   0  0  0  0  0  0  0  0  0  0  0  0
   -3.4012    0.1766   -2.4535 H   0  0  0  0  0  0  0  0  0  0  0  0
   -3.3759   -0.4144   -0.3788 C   0  0  0  0  0  0  0  0  0  0  0  0
   -4.7050    0.0086   -0.1887 C   0  0  0  0  0  0  0  0  0  0  0  0
   -5.2514    0.4696   -1.0275 H   0  0  0  0  0  0  0  0  0  0  0  0
   -5.3371   -0.1482    1.0555 C   0  0  0  0  0  0  0  0  0  0  0  0
   -6.3766    0.1884    1.1879 H   0  0  0  0  0  0  0  0  0  0  0  0
   -4.6415   -0.7268    2.1277 C   0  0  0  0  0  0  0  0  0  0  0  0
   -5.1336   -0.8475    3.1049 H   0  0  0  0  0  0  0  0  0  0  0  0
   -3.3156   -1.1550    1.9465 C   0  0  0  0  0  0  0  0  0  0  0  0
   -2.7665   -1.6189    2.7805 H   0  0  0  0  0  0  0  0  0  0  0  0
   -2.6886   -1.0027    0.7029 C   0  0  0  0  0  0  0  0  0  0  0  0
   -1.6550   -1.3542    0.5473 H   0  0  0  0  0  0  0  0  0  0  0  0
   -1.0518    0.6936   -2.5363 H   0  0  0  0  0  0  0  0  0  0  0  0
  1  2  1  0  0  0  0
  1 16  1  0  0  0  0
  3 13  1  0  0  0  0
  4  5  1  0  0  0  0
  5  6  2  0  0  0  0
  5  2  1  0  0  0  0
  6  7  1  0  0  0  0
  8  9  1  0  0  0  0
  8  6  1  0  0  0  0
 10  8  2  0  0  0  0
 11 10  1  0  0  0  0
 12 10  1  0  0  0  0
 12  4  2  0  0  0  0
 13 12  1  0  0  0  0
 13 14  1  0  0  0  0
 15 13  1  0  0  0  0
 16 17  1  0  0  0  0
 16 18  1  0  0  0  0
 18 20  1  0  0  0  0
 18 21  1  0  0  0  0
 19 18  1  0  0  0  0
 22 16  1  0  0  0  0
 22 23  1  0  0  0  0
 24 22  1  0  0  0  0
 25 22  1  0  0  0  0
 26 28  1  0  0  0  0
 26  1  1  0  0  0  0
 27 26  1  0  0  0  0
 28 31  1  0  0  0  0
 28 30  1  0  0  0  0
 29 28  1  0  0  0  0
 32 33  1  0  0  0  0
 32 26  1  0  0  0  0
 34 32  1  0  0  0  0
 35 32  1  0  0  0  0
 36  3  1  0  0  0  0
 36 39  1  0  0  0  0
 37 36  1  0  0  0  0
 38 36  1  0  0  0  0
 39 40  2  0  0  0  0
 39 48  1  0  0  0  0
 40 42  1  0  0  0  0
 41 40  1  0  0  0  0
 42 43  1  0  0  0  0
 42 44  2  0  0  0  0
 44 45  1  0  0  0  0
 46 44  1  0  0  0  0
 46 47  1  0  0  0  0
 48 46  2  0  0  0  0
 49 48  1  0  0  0  0
 50  3  1  0  0  0  0
M  END
