1,2,6
 OpenBabel05122313063D

 49 50  0  0  1  0  0  0  0  0999 V2000
    2.0877    0.1847   -0.1071 P   0  0  0  0  0  0  0  0  0  0  0  0
   -2.0455   -1.0185    0.1498 N   0  0  0  0  0  2  0  0  0  0  0  0
   -3.0042   -0.0968    0.4135 N   0  0  0  0  0  0  0  0  0  0  0  0
    1.8238    1.6922   -0.9143 N   0  0  0  0  0  0  0  0  0  0  0  0
    2.5947    2.3205   -1.1516 H   0  0  0  0  0  0  0  0  0  0  0  0
   -0.4339    1.4157   -0.1194 C   0  0  0  0  0  3  0  0  0  0  0  0
    0.5516    2.2564   -0.7122 C   0  0  0  0  0  0  0  0  0  0  0  0
    0.2594    3.5975   -1.0303 C   0  0  0  0  0  0  0  0  0  0  0  0
    1.0251    4.2331   -1.5027 H   0  0  0  0  0  0  0  0  0  0  0  0
   -1.0054    4.1246   -0.7234 C   0  0  0  0  0  0  0  0  0  0  0  0
   -1.2335    5.1709   -0.9766 H   0  0  0  0  0  0  0  0  0  0  0  0
   -1.9634    3.3327   -0.0756 C   0  0  0  0  0  0  0  0  0  0  0  0
   -2.9402    3.7599    0.2026 H   0  0  0  0  0  0  0  0  0  0  0  0
   -1.6679    1.9881    0.2376 C   0  0  0  0  0  0  0  0  0  0  0  0
   -2.6451    1.1625    1.0500 C   0  0  0  0  0  0  0  0  0  0  0  0
   -2.2005    0.9222    2.0405 H   0  0  0  0  0  0  0  0  0  0  0  0
   -3.5817    1.7202    1.2300 H   0  0  0  0  0  0  0  0  0  0  0  0
   -4.2310   -0.5058   -0.0260 C   0  0  1  0  0  3  0  0  0  0  0  0
   -4.0359   -1.7634   -0.6015 C   0  0  0  0  0  0  0  0  0  0  0  0
   -4.8018   -2.3994   -1.0569 H   0  0  0  0  0  0  0  0  0  0  0  0
   -2.6545   -2.0480   -0.4834 C   0  0  0  0  0  0  0  0  0  0  0  0
   -5.4728    0.3078    0.1357 C   0  0  0  0  0  0  0  0  0  0  0  0
   -5.7142    0.4988    1.2025 H   0  0  0  0  0  0  0  0  0  0  0  0
   -6.3293   -0.2307   -0.3094 H   0  0  0  0  0  0  0  0  0  0  0  0
   -5.3927    1.2920   -0.3714 H   0  0  0  0  0  0  0  0  0  0  0  0
   -1.9105   -3.2329   -1.0039 C   0  0  0  0  0  0  0  0  0  0  0  0
   -1.5113   -3.0246   -2.0198 H   0  0  0  0  0  0  0  0  0  0  0  0
   -2.5842   -4.1074   -1.0806 H   0  0  0  0  0  0  0  0  0  0  0  0
   -1.0452   -3.4730   -0.3556 H   0  0  0  0  0  0  0  0  0  0  0  0
    3.0624   -0.8526   -1.2970 C   0  0  0  0  0  0  0  0  0  0  0  0
    3.2618   -1.7721   -0.7048 H   0  0  0  0  0  0  0  0  0  0  0  0
    2.1698   -1.2275   -2.4852 C   0  0  0  0  0  0  0  0  0  0  0  0
    2.7350   -1.8576   -3.2025 H   0  0  0  0  0  0  0  0  0  0  0  0
    1.8159   -0.3229   -3.0209 H   0  0  0  0  0  0  0  0  0  0  0  0
    1.2858   -1.7975   -2.1379 H   0  0  0  0  0  0  0  0  0  0  0  0
    4.3753   -0.1872   -1.7225 C   0  0  0  0  0  0  0  0  0  0  0  0
    4.9347   -0.8567   -2.4080 H   0  0  0  0  0  0  0  0  0  0  0  0
    5.0406    0.0385   -0.8652 H   0  0  0  0  0  0  0  0  0  0  0  0
    4.1862    0.7564   -2.2766 H   0  0  0  0  0  0  0  0  0  0  0  0
    3.2068    0.5729    1.3336 C   0  0  0  0  0  0  0  0  0  0  0  0
    4.0379    1.1796    0.9053 H   0  0  0  0  0  0  0  0  0  0  0  0
    3.7683   -0.7059    1.9671 C   0  0  0  0  0  0  0  0  0  0  0  0
    4.3308   -0.4530    2.8895 H   0  0  0  0  0  0  0  0  0  0  0  0
    4.4615   -1.2403    1.2876 H   0  0  0  0  0  0  0  0  0  0  0  0
    2.9494   -1.4076    2.2272 H   0  0  0  0  0  0  0  0  0  0  0  0
    2.4270    1.4318    2.3372 C   0  0  0  0  0  0  0  0  0  0  0  0
    3.0952    1.7582    3.1605 H   0  0  0  0  0  0  0  0  0  0  0  0
    1.5917    0.8493    2.7763 H   0  0  0  0  0  0  0  0  0  0  0  0
    1.9935    2.3355    1.8644 H   0  0  0  0  0  0  0  0  0  0  0  0
  1 40  1  0  0  0  0
  2  3  1  0  0  0  0
  3 15  1  0  0  0  0
  4  7  1  0  0  0  0
  4  1  1  0  0  0  0
  5  4  1  0  0  0  0
  6 14  1  0  0  0  0
  7  6  2  0  0  0  0
  8 10  2  0  0  0  0
  8  7  1  0  0  0  0
  9  8  1  0  0  0  0
 10 12  1  0  0  0  0
 11 10  1  0  0  0  0
 12 13  1  0  0  0  0
 12 14  2  0  0  0  0
 14 15  1  0  0  0  0
 15 17  1  0  0  0  0
 15 16  1  0  0  0  0
 18 22  1  1  0  0  0
 18  3  1  0  0  0  0
 19 21  2  0  0  0  0
 19 18  1  0  0  0  0
 20 19  1  0  0  0  0
 21  2  1  0  0  0  0
 22 23  1  0  0  0  0
 24 22  1  0  0  0  0
 25 22  1  0  0  0  0
 26 21  1  0  0  0  0
 26 29  1  0  0  0  0
 27 26  1  0  0  0  0
 28 26  1  0  0  0  0
 30 31  1  0  0  0  0
 30  1  1  0  0  0  0
 32 35  1  0  0  0  0
 32 30  1  0  0  0  0
 33 32  1  0  0  0  0
 34 32  1  0  0  0  0
 36 30  1  0  0  0  0
 36 38  1  0  0  0  0
 37 36  1  0  0  0  0
 39 36  1  0  0  0  0
 40 42  1  0  0  0  0
 40 46  1  0  0  0  0
 41 40  1  0  0  0  0
 42 45  1  0  0  0  0
 42 43  1  0  0  0  0
 44 42  1  0  0  0  0
 46 48  1  0  0  0  0
 46 47  1  0  0  0  0
 49 46  1  0  0  0  0
M  END
