1,2,3,4,6
 OpenBabel05122313063D

 39 41  0  0  1  0  0  0  0  0999 V2000
   -1.5643   -1.1855    1.6972 S   0  0  0  0  0  1  0  0  0  0  0  0
   -1.6137   -1.0494   -1.5228 S   0  0  0  0  0  0  0  0  0  0  0  0
    1.5644   -1.1853   -1.6972 S   0  0  0  0  0  1  0  0  0  0  0  0
    1.6137   -1.0494    1.5228 S   0  0  0  0  0  0  0  0  0  0  0  0
   -0.0001    5.2997   -0.0001 Cl  0  0  0  0  0  0  0  0  0  0  0  0
   -0.0001    0.7787    0.0000 N   0  0  0  0  0  2  0  0  0  0  0  0
   -3.0233   -0.7353    0.8439 C   0  0  0  0  0  0  0  0  0  0  0  0
   -4.2219   -0.4634    1.5582 C   0  0  0  0  0  0  0  0  0  0  0  0
   -4.1972   -0.5044    2.6577 H   0  0  0  0  0  0  0  0  0  0  0  0
   -5.4072   -0.1535    0.8884 C   0  0  0  0  0  0  0  0  0  0  0  0
   -6.3165    0.0554    1.4730 H   0  0  0  0  0  0  0  0  0  0  0  0
   -5.4566   -0.1159   -0.5203 C   0  0  0  0  0  0  0  0  0  0  0  0
   -6.3956    0.1161   -1.0433 H   0  0  0  0  0  0  0  0  0  0  0  0
   -4.2933   -0.3922   -1.2479 C   0  0  0  0  0  0  0  0  0  0  0  0
   -4.3087   -0.3926   -2.3496 H   0  0  0  0  0  0  0  0  0  0  0  0
   -3.0928   -0.6700   -0.5708 C   0  0  0  0  0  0  0  0  0  0  0  0
   -1.1524    0.6341   -2.1288 C   0  0  0  0  0  0  0  0  0  0  0  0
   -0.3549    0.4359   -2.8773 H   0  0  0  0  0  0  0  0  0  0  0  0
   -2.0209    1.1088   -2.6246 H   0  0  0  0  0  0  0  0  0  0  0  0
   -0.5920    1.4619   -1.0126 C   0  0  2  0  0  3  0  0  0  0  0  0
   -0.6293    2.8614   -1.0362 C   0  0  0  0  0  0  0  0  0  0  0  0
   -1.1251    3.3953   -1.8577 H   0  0  0  0  0  0  0  0  0  0  0  0
   -0.0001    3.5665   -0.0000 C   0  0  0  0  0  0  0  0  0  0  0  0
    0.6292    2.8615    1.0362 C   0  0  0  0  0  0  0  0  0  0  0  0
    1.1250    3.3953    1.8576 H   0  0  0  0  0  0  0  0  0  0  0  0
    0.5919    1.4619    1.0126 C   0  0  0  0  0  0  0  0  0  0  0  0
    1.1523    0.6342    2.1288 C   0  0  0  0  0  0  0  0  0  0  0  0
    0.3548    0.4360    2.8773 H   0  0  0  0  0  0  0  0  0  0  0  0
    2.0208    1.1089    2.6246 H   0  0  0  0  0  0  0  0  0  0  0  0
    3.0928   -0.6699    0.5708 C   0  0  0  0  0  0  0  0  0  0  0  0
    4.2933   -0.3921    1.2480 C   0  0  0  0  0  0  0  0  0  0  0  0
    4.3086   -0.3925    2.3497 H   0  0  0  0  0  0  0  0  0  0  0  0
    5.4566   -0.1158    0.5205 C   0  0  0  0  0  0  0  0  0  0  0  0
    6.3956    0.1162    1.0435 H   0  0  0  0  0  0  0  0  0  0  0  0
    5.4072   -0.1533   -0.8882 C   0  0  0  0  0  0  0  0  0  0  0  0
    6.3166    0.0555   -1.4728 H   0  0  0  0  0  0  0  0  0  0  0  0
    4.2219   -0.4632   -1.5581 C   0  0  0  0  0  0  0  0  0  0  0  0
    4.1973   -0.5042   -2.6576 H   0  0  0  0  0  0  0  0  0  0  0  0
    3.0233   -0.7351   -0.8438 C   0  0  0  0  0  0  0  0  0  0  0  0
  2 16  1  0  0  0  0
  3 39  1  0  0  0  0
  4 27  1  0  0  0  0
  5 23  1  0  0  0  0
  6 26  1  0  0  0  0
  7  8  1  0  0  0  0
  7  1  1  0  0  0  0
  8  9  1  0  0  0  0
 10 11  1  0  0  0  0
 10  8  2  0  0  0  0
 12 10  1  0  0  0  0
 13 12  1  0  0  0  0
 14 16  1  0  0  0  0
 14 12  2  0  0  0  0
 15 14  1  0  0  0  0
 16  7  2  0  0  0  0
 17  2  1  0  0  0  0
 18 17  1  0  0  0  0
 19 17  1  0  0  0  0
 20 17  1  6  0  0  0
 20  6  1  0  0  0  0
 21 20  1  0  0  0  0
 21 23  2  0  0  0  0
 22 21  1  0  0  0  0
 23 24  1  0  0  0  0
 24 25  1  0  0  0  0
 26 24  2  0  0  0  0
 26 27  1  0  0  0  0
 27 29  1  0  0  0  0
 27 28  1  0  0  0  0
 30 31  1  0  0  0  0
 30  4  1  0  0  0  0
 31 32  1  0  0  0  0
 33 34  1  0  0  0  0
 33 31  2  0  0  0  0
 35 33  1  0  0  0  0
 36 35  1  0  0  0  0
 37 35  2  0  0  0  0
 37 39  1  0  0  0  0
 38 37  1  0  0  0  0
 39 30  2  0  0  0  0
M  END
