4,11,28,35,47
 OpenBabel05122313063D

 47 49  0  0  1  0  0  0  0  0999 V2000
    2.1945   -2.4302   -1.5012 C   0  0  0  0  0  0  0  0  0  0  0  0
    2.5807   -3.4620   -1.3883 H   0  0  0  0  0  0  0  0  0  0  0  0
    2.2170   -2.1940   -2.5867 H   0  0  0  0  0  0  0  0  0  0  0  0
    0.4091   -2.4127   -1.1081 S   0  0  0  0  0  0  0  0  0  0  0  0
    0.3983   -3.1280    0.5893 C   0  0  0  0  0  0  0  0  0  0  0  0
    0.3830   -4.2326    0.4939 H   0  0  0  0  0  0  0  0  0  0  0  0
    1.3370   -2.8381    1.1066 H   0  0  0  0  0  0  0  0  0  0  0  0
   -0.8319   -2.6696    1.3705 C   0  0  0  0  0  0  0  0  0  0  0  0
   -0.9552   -3.3087    2.2685 H   0  0  0  0  0  0  0  0  0  0  0  0
   -1.7492   -2.7601    0.7511 H   0  0  0  0  0  0  0  0  0  0  0  0
   -0.6595   -0.9275    1.9191 S   0  0  0  0  0  0  0  0  0  0  0  0
   -2.4288   -0.4196    2.1454 C   0  0  0  0  0  0  0  0  0  0  0  0
   -2.8631   -1.1062    2.8985 H   0  0  0  0  0  0  0  0  0  0  0  0
   -2.3389    0.5714    2.6318 H   0  0  0  0  0  0  0  0  0  0  0  0
   -3.2698   -0.3938    0.8984 C   0  0  0  0  0  0  0  0  0  0  0  0
   -4.0788   -1.5183    0.6215 C   0  0  0  0  0  0  0  0  0  0  0  0
   -4.0917   -2.3530    1.3402 H   0  0  0  0  0  0  0  0  0  0  0  0
   -4.8856   -1.5829   -0.5218 C   0  0  0  0  0  0  0  0  0  0  0  0
   -5.5054   -2.4723   -0.7083 H   0  0  0  0  0  0  0  0  0  0  0  0
   -4.9113   -0.4995   -1.4113 C   0  0  0  0  0  0  0  0  0  0  0  0
   -5.5473   -0.5289   -2.3081 H   0  0  0  0  0  0  0  0  0  0  0  0
   -4.1326    0.6327   -1.1422 C   0  0  0  0  0  0  0  0  0  0  0  0
   -4.1619    1.4894   -1.8339 H   0  0  0  0  0  0  0  0  0  0  0  0
   -3.3047    0.7061   -0.0028 C   0  0  0  0  0  0  0  0  0  0  0  0
   -2.4832    1.9593    0.1883 C   0  0  0  0  0  0  0  0  0  0  0  0
   -1.9643    1.9856    1.1638 H   0  0  0  0  0  0  0  0  0  0  0  0
   -3.1091    2.8701    0.0891 H   0  0  0  0  0  0  0  0  0  0  0  0
   -1.2158    2.0130   -1.1609 S   0  0  0  0  0  0  0  0  0  0  0  0
   -0.2311    3.5035   -0.7522 C   0  0  0  0  0  0  0  0  0  0  0  0
    0.5235    3.5362   -1.5651 H   0  0  0  0  0  0  0  0  0  0  0  0
   -0.8861    4.3885   -0.8957 H   0  0  0  0  0  0  0  0  0  0  0  0
    0.4246    3.5918    0.6284 C   0  0  0  0  0  0  0  0  0  0  0  0
   -0.3400    3.7020    1.4246 H   0  0  0  0  0  0  0  0  0  0  0  0
    1.0439    4.5122    0.6699 H   0  0  0  0  0  0  0  0  0  0  0  0
    1.4217    2.1761    1.2093 S   0  0  0  0  0  0  0  0  0  0  0  0
    2.8364    2.1595    0.0267 C   0  0  0  0  0  0  0  0  0  0  0  0
    2.4613    2.4578   -0.9736 H   0  0  0  0  0  0  0  0  0  0  0  0
    3.6073    2.8822    0.3559 H   0  0  0  0  0  0  0  0  0  0  0  0
    3.4060    0.7626   -0.0579 C   0  0  1  0  0  3  0  0  0  0  0  0
    4.6900    0.4583    0.4264 C   0  0  0  0  0  0  0  0  0  0  0  0
    5.3093    1.2434    0.8834 H   0  0  0  0  0  0  0  0  0  0  0  0
    5.1560   -0.8592    0.3183 C   0  0  0  0  0  0  0  0  0  0  0  0
    6.1508   -1.1318    0.7008 H   0  0  0  0  0  0  0  0  0  0  0  0
    4.3385   -1.8242   -0.2837 C   0  0  0  0  0  0  0  0  0  0  0  0
    4.6798   -2.8637   -0.3965 H   0  0  0  0  0  0  0  0  0  0  0  0
    3.0685   -1.4409   -0.7552 C   0  0  0  0  0  0  0  0  0  0  0  0
    2.6196   -0.1805   -0.6170 N   0  0  0  0  0  2  0  0  0  0  0  0
  1  2  1  0  0  0  0
  1  4  1  0  0  0  0
  1 46  1  0  0  0  0
  3  1  1  0  0  0  0
  4  5  1  0  0  0  0
  5  7  1  0  0  0  0
  5  8  1  0  0  0  0
  6  5  1  0  0  0  0
  8 11  1  0  0  0  0
  8  9  1  0  0  0  0
 10  8  1  0  0  0  0
 11 12  1  0  0  0  0
 12 14  1  0  0  0  0
 12 13  1  0  0  0  0
 15 12  1  0  0  0  0
 16 15  1  0  0  0  0
 16 17  1  0  0  0  0
 18 16  2  0  0  0  0
 19 18  1  0  0  0  0
 20 22  2  0  0  0  0
 20 18  1  0  0  0  0
 21 20  1  0  0  0  0
 22 24  1  0  0  0  0
 23 22  1  0  0  0  0
 24 25  1  0  0  0  0
 24 15  2  0  0  0  0
 25 26  1  0  0  0  0
 27 25  1  0  0  0  0
 28 29  1  0  0  0  0
 28 25  1  0  0  0  0
 29 32  1  0  0  0  0
 30 29  1  0  0  0  0
 31 29  1  0  0  0  0
 32 34  1  0  0  0  0
 32 35  1  0  0  0  0
 32 33  1  0  0  0  0
 36 38  1  0  0  0  0
 36 35  1  0  0  0  0
 37 36  1  0  0  0  0
 39 47  1  1  0  0  0
 39 36  1  0  0  0  0
 39 40  1  0  0  0  0
 40 41  1  0  0  0  0
 42 40  2  0  0  0  0
 42 43  1  0  0  0  0
 44 42  1  0  0  0  0
 45 44  1  0  0  0  0
 46 47  1  0  0  0  0
 46 44  2  0  0  0  0
M  END
