1,3
 OpenBabel05122313063D

 65 70  0  0  0  0  0  0  0  0999 V2000
    0.1157   -1.0189   -2.4224 Se  0  0  0  0  0  1  0  0  0  0  0  0
   -0.9072   -1.3635   -0.5390 P   0  0  0  0  0  4  0  0  0  0  0  0
    0.6780    0.6941    0.8252 P   0  0  0  0  0  0  0  0  0  0  0  0
   -0.9587    0.0168    0.5126 N   0  0  0  0  0  0  0  0  0  0  0  0
   -2.2243    0.5257    0.9598 C   0  0  0  0  0  0  0  0  0  0  0  0
   -2.6430    0.3189    2.2721 C   0  0  0  0  0  0  0  0  0  0  0  0
   -1.9828   -0.2218    2.9635 H   0  0  0  0  0  0  0  0  0  0  0  0
   -3.9076    0.7779    2.7172 C   0  0  0  0  0  0  0  0  0  0  0  0
   -4.2079    0.6041    3.7614 H   0  0  0  0  0  0  0  0  0  0  0  0
   -4.7673    1.4174    1.8382 C   0  0  0  0  0  0  0  0  0  0  0  0
   -5.7588    1.7593    2.1726 H   0  0  0  0  0  0  0  0  0  0  0  0
   -5.2539    2.2954   -0.4402 C   0  0  0  0  0  0  0  0  0  0  0  0
   -6.2449    2.6216   -0.0879 H   0  0  0  0  0  0  0  0  0  0  0  0
   -4.8626    2.5236   -1.7504 C   0  0  0  0  0  0  0  0  0  0  0  0
   -5.5426    3.0336   -2.4493 H   0  0  0  0  0  0  0  0  0  0  0  0
   -3.5786    2.1069   -2.1907 C   0  0  0  0  0  0  0  0  0  0  0  0
   -3.2636    2.2993   -3.2273 H   0  0  0  0  0  0  0  0  0  0  0  0
   -2.7132    1.4575   -1.3226 C   0  0  0  0  0  0  0  0  0  0  0  0
   -1.7239    1.1306   -1.6786 H   0  0  0  0  0  0  0  0  0  0  0  0
   -3.0875    1.2042    0.0299 C   0  0  0  0  0  0  0  0  0  0  0  0
   -4.3852    1.6420    0.4838 C   0  0  0  0  0  0  0  0  0  0  0  0
   -2.6595   -1.8328   -0.7809 C   0  0  0  0  0  0  0  0  0  0  0  0
   -3.4032   -2.3952    0.2770 C   0  0  0  0  0  0  0  0  0  0  0  0
   -2.9258   -2.6025    1.2449 H   0  0  0  0  0  0  0  0  0  0  0  0
   -4.7607   -2.6905    0.0941 C   0  0  0  0  0  0  0  0  0  0  0  0
   -5.3401   -3.1205    0.9247 H   0  0  0  0  0  0  0  0  0  0  0  0
   -5.3763   -2.4410   -1.1432 C   0  0  0  0  0  0  0  0  0  0  0  0
   -6.4432   -2.6726   -1.2826 H   0  0  0  0  0  0  0  0  0  0  0  0
   -4.6302   -1.9044   -2.2038 C   0  0  0  0  0  0  0  0  0  0  0  0
   -5.1069   -1.7150   -3.1770 H   0  0  0  0  0  0  0  0  0  0  0  0
   -3.2742   -1.5981   -2.0256 C   0  0  0  0  0  0  0  0  0  0  0  0
   -2.6840   -1.1653   -2.8475 H   0  0  0  0  0  0  0  0  0  0  0  0
   -0.1505   -2.7169    0.4289 C   0  0  0  0  0  0  0  0  0  0  0  0
    0.5577   -3.7321   -0.2419 C   0  0  0  0  0  0  0  0  0  0  0  0
    0.7137   -3.6498   -1.3287 H   0  0  0  0  0  0  0  0  0  0  0  0
    1.0845   -4.8086    0.4833 C   0  0  0  0  0  0  0  0  0  0  0  0
    1.6564   -5.5884   -0.0409 H   0  0  0  0  0  0  0  0  0  0  0  0
    0.8976   -4.8826    1.8733 C   0  0  0  0  0  0  0  0  0  0  0  0
    1.3173   -5.7273    2.4403 H   0  0  0  0  0  0  0  0  0  0  0  0
    0.1893   -3.8722    2.5425 C   0  0  0  0  0  0  0  0  0  0  0  0
    0.0589   -3.9132    3.6341 H   0  0  0  0  0  0  0  0  0  0  0  0
   -0.3318   -2.7864    1.8251 C   0  0  0  0  0  0  0  0  0  0  0  0
   -0.8518   -1.9772    2.3555 H   0  0  0  0  0  0  0  0  0  0  0  0
    0.4422    2.4911    1.1482 C   0  0  0  0  0  0  0  0  0  0  0  0
    1.3755    3.1142    2.0084 C   0  0  0  0  0  0  0  0  0  0  0  0
    2.1291    2.5128    2.5371 H   0  0  0  0  0  0  0  0  0  0  0  0
    1.3639    4.5052    2.1768 C   0  0  0  0  0  0  0  0  0  0  0  0
    2.1021    4.9749    2.8442 H   0  0  0  0  0  0  0  0  0  0  0  0
    0.4224    5.2933    1.4962 C   0  0  0  0  0  0  0  0  0  0  0  0
    0.4122    6.3852    1.6331 H   0  0  0  0  0  0  0  0  0  0  0  0
   -0.4938    4.6813    0.6286 C   0  0  0  0  0  0  0  0  0  0  0  0
   -1.2266    5.2877    0.0754 H   0  0  0  0  0  0  0  0  0  0  0  0
   -0.4777    3.2912    0.4442 C   0  0  0  0  0  0  0  0  0  0  0  0
   -1.1791    2.8424   -0.2667 H   0  0  0  0  0  0  0  0  0  0  0  0
    1.0991    0.0920    2.5245 C   0  0  0  0  0  0  0  0  0  0  0  0
    2.1113   -0.8718    2.6778 C   0  0  0  0  0  0  0  0  0  0  0  0
    2.6534   -1.2277    1.7918 H   0  0  0  0  0  0  0  0  0  0  0  0
    2.4227   -1.3801    3.9483 C   0  0  0  0  0  0  0  0  0  0  0  0
    3.2170   -2.1346    4.0511 H   0  0  0  0  0  0  0  0  0  0  0  0
    1.7229   -0.9291    5.0771 C   0  0  0  0  0  0  0  0  0  0  0  0
    1.9660   -1.3272    6.0742 H   0  0  0  0  0  0  0  0  0  0  0  0
    0.7227    0.0491    4.9354 C   0  0  0  0  0  0  0  0  0  0  0  0
    0.1867    0.4235    5.8211 H   0  0  0  0  0  0  0  0  0  0  0  0
    0.4176    0.5650    3.6682 C   0  0  0  0  0  0  0  0  0  0  0  0
   -0.3390    1.3569    3.5676 H   0  0  0  0  0  0  0  0  0  0  0  0
  1  2  1  0  0  0  0
  2 33  1  0  0  0  0
  2  4  1  0  0  0  0
  3 44  1  0  0  0  0
  3 55  1  0  0  0  0
  4  3  1  0  0  0  0
  4  5  1  0  0  0  0
  5  6  1  0  0  0  0
  6  8  2  0  0  0  0
  6  7  1  0  0  0  0
  8  9  1  0  0  0  0
 10 11  1  0  0  0  0
 10  8  1  0  0  0  0
 12 13  1  0  0  0  0
 12 21  1  0  0  0  0
 14 12  2  0  0  0  0
 15 14  1  0  0  0  0
 16 14  1  0  0  0  0
 16 18  2  0  0  0  0
 17 16  1  0  0  0  0
 18 20  1  0  0  0  0
 19 18  1  0  0  0  0
 20 21  1  0  0  0  0
 20  5  2  0  0  0  0
 21 10  2  0  0  0  0
 22  2  1  0  0  0  0
 22 23  1  0  0  0  0
 23 24  1  0  0  0  0
 25 23  2  0  0  0  0
 25 26  1  0  0  0  0
 27 25  1  0  0  0  0
 28 27  1  0  0  0  0
 29 31  1  0  0  0  0
 29 27  2  0  0  0  0
 30 29  1  0  0  0  0
 31 22  2  0  0  0  0
 32 31  1  0  0  0  0
 33 42  1  0  0  0  0
 34 33  2  0  0  0  0
 34 36  1  0  0  0  0
 35 34  1  0  0  0  0
 36 38  2  0  0  0  0
 37 36  1  0  0  0  0
 38 39  1  0  0  0  0
 38 40  1  0  0  0  0
 40 41  1  0  0  0  0
 42 43  1  0  0  0  0
 42 40  2  0  0  0  0
 44 45  1  0  0  0  0
 45 47  2  0  0  0  0
 45 46  1  0  0  0  0
 47 48  1  0  0  0  0
 49 50  1  0  0  0  0
 49 47  1  0  0  0  0
 51 49  2  0  0  0  0
 52 51  1  0  0  0  0
 53 51  1  0  0  0  0
 53 44  2  0  0  0  0
 54 53  1  0  0  0  0
 55 56  2  0  0  0  0
 55 64  1  0  0  0  0
 56 58  1  0  0  0  0
 57 56  1  0  0  0  0
 58 59  1  0  0  0  0
 58 60  2  0  0  0  0
 60 61  1  0  0  0  0
 62 60  1  0  0  0  0
 62 63  1  0  0  0  0
 64 62  2  0  0  0  0
 65 64  1  0  0  0  0
M  END
