2
 OpenBabel05122313063D

  8  7  0  0  0  0  0  0  0  0999 V2000
   -5.2639    0.4968   -1.2373 S   0  0  0  0  0  0  0  0  0  0  0  0
   -1.6591   -0.9073   -0.6228 O   0  5  0  0  0  0  0  0  0  0  0  0
   -3.5940   -2.0250   -0.7317 O   0  0  0  0  0  0  0  0  0  0  0  0
   -2.9227   -1.0142   -0.9410 C   0  0  0  0  0  0  0  0  0  0  0  0
   -3.5072    0.2096   -1.6568 C   0  0  0  0  0  0  0  0  0  0  0  0
   -5.5192   -0.8415   -1.1308 H   0  0  0  0  0  0  0  0  0  0  0  0
   -2.9260    1.1147   -1.4036 H   0  0  0  0  0  0  0  0  0  0  0  0
   -3.3943    0.0370   -2.7498 H   0  0  0  0  0  0  0  0  0  0  0  0
  1  6  1  0  0  0  0
  4  3  2  0  0  0  0
  4  2  1  0  0  0  0
  5  7  1  0  0  0  0
  5  1  1  0  0  0  0
  5  4  1  0  0  0  0
  8  5  1  0  0  0  0
M  CHG  1   2  -1
M  END
