1
 OpenBabel05122313063D

 14 13  0  0  0  0  0  0  0  0999 V2000
    0.0360    1.6060    0.0306 O   0  0  0  0  0  1  0  0  0  0  0  0
    0.0108    2.8625   -0.5769 C   0  0  0  0  0  0  0  0  0  0  0  0
    0.3419    2.8421   -2.0668 C   0  0  0  0  0  0  0  0  0  0  0  0
    1.3794    2.4930   -2.2129 H   0  0  0  0  0  0  0  0  0  0  0  0
    0.2323    3.8522   -2.5025 H   0  0  0  0  0  0  0  0  0  0  0  0
   -0.3330    2.1369   -2.5842 H   0  0  0  0  0  0  0  0  0  0  0  0
    1.0572    3.7243    0.1981 C   0  0  0  0  0  0  0  0  0  0  0  0
   -1.4232    3.4452   -0.3612 C   0  0  0  0  0  0  0  0  0  0  0  0
    2.2762    3.1465    0.1141 F   0  0  0  0  0  0  0  0  0  0  0  0
    0.7474    3.8341    1.5050 F   0  0  0  0  0  0  0  0  0  0  0  0
    1.1610    4.9673   -0.3149 F   0  0  0  0  0  0  0  0  0  0  0  0
   -2.3021    2.8062   -1.1698 F   0  0  0  0  0  0  0  0  0  0  0  0
   -1.8455    3.2938    0.9038 F   0  0  0  0  0  0  0  0  0  0  0  0
   -1.4756    4.7583   -0.6712 F   0  0  0  0  0  0  0  0  0  0  0  0
  2  8  1  0  0  0  0
  2  1  1  0  0  0  0
  2  7  1  0  0  0  0
  3  2  1  0  0  0  0
  4  3  1  0  0  0  0
  5  3  1  0  0  0  0
  6  3  1  0  0  0  0
  7 10  1  0  0  0  0
  8 13  1  0  0  0  0
  9  7  1  0  0  0  0
 11  7  1  0  0  0  0
 12  8  1  0  0  0  0
 14  8  1  0  0  0  0
M  END
