1
 OpenBabel05122313063D

 21 22  0  0  1  0  0  0  0  0999 V2000
   -1.4978   -0.3756   -1.2209 O   0  0  0  0  0  1  0  0  0  0  0  0
   -2.6416    0.1850   -0.9278 N   0  0  0  0  0  0  0  0  0  0  0  0
   -2.9554    1.3866   -1.4830 C   0  0  0  0  0  0  0  0  0  0  0  0
   -4.2111    1.9712   -1.1912 C   0  0  0  0  0  0  0  0  0  0  0  0
   -5.1095    1.3611   -0.3341 C   0  0  0  0  0  0  0  0  0  0  0  0
   -4.7629    0.1262    0.2815 C   0  0  0  0  0  0  0  0  0  0  0  0
   -5.6077   -0.5564    1.2027 C   0  0  0  0  0  0  0  0  0  0  0  0
   -5.1954   -1.7412    1.7956 C   0  0  0  0  0  0  0  0  0  0  0  0
   -3.9212   -2.2879    1.4931 C   0  0  0  0  0  0  0  0  0  0  0  0
   -3.0701   -1.6635    0.5891 C   0  0  0  0  0  0  0  0  0  0  0  0
   -3.4914   -0.4578   -0.0193 C   0  0  2  0  0  3  0  0  0  0  0  0
   -2.0678   -2.0573    0.3669 H   0  0  0  0  0  0  0  0  0  0  0  0
   -3.5930   -3.2156    1.9847 H   0  0  0  0  0  0  0  0  0  0  0  0
   -5.8536   -2.2554    2.5117 H   0  0  0  0  0  0  0  0  0  0  0  0
   -6.5889   -0.1178    1.4398 H   0  0  0  0  0  0  0  0  0  0  0  0
   -6.0819    1.8242   -0.1110 H   0  0  0  0  0  0  0  0  0  0  0  0
   -4.4429    2.9362   -1.6628 H   0  0  0  0  0  0  0  0  0  0  0  0
   -1.9160    2.0014   -2.3539 C   0  0  0  0  0  0  0  0  0  0  0  0
   -1.0319    2.2411   -1.7234 H   0  0  0  0  0  0  0  0  0  0  0  0
   -1.5710    1.2815   -3.1224 H   0  0  0  0  0  0  0  0  0  0  0  0
   -2.2957    2.9239   -2.8280 H   0  0  0  0  0  0  0  0  0  0  0  0
  1  2  1  0  0  0  0
  2 11  1  0  0  0  0
  3  4  2  0  0  0  0
  3  2  1  0  0  0  0
  4  5  1  0  0  0  0
  5 16  1  0  0  0  0
  5  6  2  0  0  0  0
  6  7  1  0  0  0  0
  7 15  1  0  0  0  0
  7  8  2  0  0  0  0
  8 14  1  0  0  0  0
  9  8  1  0  0  0  0
  9 13  1  0  0  0  0
 10  9  2  0  0  0  0
 11  6  1  1  0  0  0
 11 10  1  0  0  0  0
 12 10  1  0  0  0  0
 17  4  1  0  0  0  0
 18 19  1  0  0  0  0
 18  3  1  0  0  0  0
 20 18  1  0  0  0  0
 21 18  1  0  0  0  0
M  END
