2
 OpenBabel05122313063D

 14 14  0  0  0  0  0  0  0  0999 V2000
    0.5886   -1.4057   -1.2468 S   0  0  0  0  0  0  0  0  0  0  0  0
    1.4090    0.8811    0.4559 O   0  5  0  0  0  0  0  0  0  0  0  0
    4.7299   -0.4636    0.2418 O   0  0  0  0  0  0  0  0  0  0  0  0
    2.3845    0.0815    0.1299 C   0  0  0  0  0  0  0  0  0  0  0  0
    3.6894    0.3397    0.5884 C   0  0  0  0  0  0  0  0  0  0  0  0
    4.5529   -1.5225   -0.5636 C   0  0  0  0  0  0  0  0  0  0  0  0
    5.4873   -2.0689   -0.7457 H   0  0  0  0  0  0  0  0  0  0  0  0
    3.3182   -1.8537   -1.0665 C   0  0  0  0  0  0  0  0  0  0  0  0
    3.2162   -2.7340   -1.7167 H   0  0  0  0  0  0  0  0  0  0  0  0
    2.1804   -1.0732   -0.7180 C   0  0  0  0  0  0  0  0  0  0  0  0
    4.0317    1.4742    1.4852 C   0  0  0  0  0  0  0  0  0  0  0  0
    3.4128    1.4337    2.4061 H   0  0  0  0  0  0  0  0  0  0  0  0
    3.7994    2.4457    0.9986 H   0  0  0  0  0  0  0  0  0  0  0  0
    5.1030    1.4500    1.7562 H   0  0  0  0  0  0  0  0  0  0  0  0
  1 10  2  0  0  0  0
  3  5  1  0  0  0  0
  4  2  1  0  0  0  0
  4  5  2  0  0  0  0
  5 11  1  0  0  0  0
  6  3  1  0  0  0  0
  7  6  1  0  0  0  0
  8 10  1  0  0  0  0
  8  6  2  0  0  0  0
  9  8  1  0  0  0  0
 10  4  1  0  0  0  0
 11 14  1  0  0  0  0
 11 12  1  0  0  0  0
 13 11  1  0  0  0  0
M  CHG  1   2  -1
M  END
