4
 OpenBabel05122313063D

 14 13  0  0  0  0  0  0  0  0999 V2000
    4.1262   -0.5129   -0.9409 F   0  0  0  0  0  0  0  0  0  0  0  0
    4.4661   -2.6477   -0.6294 F   0  0  0  0  0  0  0  0  0  0  0  0
    3.2860   -1.4985    0.8101 F   0  0  0  0  0  0  0  0  0  0  0  0
    1.3637   -0.9049   -1.1049 O   0  0  0  0  0  1  0  0  0  0  0  0
    2.2590   -1.9879   -1.3107 C   0  0  0  0  0  0  0  0  0  0  0  0
    2.5886   -2.0380   -2.8058 C   0  0  0  0  0  0  0  0  0  0  0  0
    2.9918   -1.0637   -3.1393 H   0  0  0  0  0  0  0  0  0  0  0  0
    1.6601   -2.2484   -3.3686 H   0  0  0  0  0  0  0  0  0  0  0  0
    3.3301   -2.8310   -3.0218 H   0  0  0  0  0  0  0  0  0  0  0  0
    1.6569   -3.3005   -0.8065 C   0  0  0  0  0  0  0  0  0  0  0  0
    1.3627   -3.2098    0.2561 H   0  0  0  0  0  0  0  0  0  0  0  0
    2.3746   -4.1349   -0.9181 H   0  0  0  0  0  0  0  0  0  0  0  0
    0.7479   -3.5266   -1.3959 H   0  0  0  0  0  0  0  0  0  0  0  0
    3.5500   -1.6591   -0.5170 C   0  0  0  0  0  0  0  0  0  0  0  0
  1 14  1  0  0  0  0
  2 14  1  0  0  0  0
  5  4  1  0  0  0  0
  5 10  1  0  0  0  0
  5 14  1  0  0  0  0
  6  5  1  0  0  0  0
  7  6  1  0  0  0  0
  8  6  1  0  0  0  0
  9  6  1  0  0  0  0
 10 11  1  0  0  0  0
 12 10  1  0  0  0  0
 13 10  1  0  0  0  0
 14  3  1  0  0  0  0
M  END
