2
 OpenBabel05122313063D

 18 18  0  0  1  0  0  0  0  0999 V2000
   -2.3239   -0.8398   -1.0016 N   0  0  0  0  0  0  0  0  0  0  0  0
   -1.0242   -0.8543   -1.2127 O   0  0  0  0  0  1  0  0  0  0  0  0
   -3.0886    0.0974   -1.6622 C   0  0  1  0  0  3  0  0  0  0  0  0
   -4.4603    0.1448   -1.4012 C   0  0  0  0  0  0  0  0  0  0  0  0
   -5.0601    0.9070   -1.9167 H   0  0  0  0  0  0  0  0  0  0  0  0
   -4.2298   -1.6697    0.1688 C   0  0  0  0  0  0  0  0  0  0  0  0
   -4.6456   -2.3648    0.9109 H   0  0  0  0  0  0  0  0  0  0  0  0
   -2.8575   -1.7224   -0.0883 C   0  0  0  0  0  0  0  0  0  0  0  0
   -5.0406   -0.7306   -0.4775 C   0  0  0  0  0  0  0  0  0  0  0  0
   -6.1144   -0.6718   -0.2524 H   0  0  0  0  0  0  0  0  0  0  0  0
   -2.3618    1.0125   -2.5872 C   0  0  0  0  0  0  0  0  0  0  0  0
   -1.6788    1.6755   -2.0147 H   0  0  0  0  0  0  0  0  0  0  0  0
   -3.0764    1.6405   -3.1485 H   0  0  0  0  0  0  0  0  0  0  0  0
   -1.7210    0.4393   -3.2860 H   0  0  0  0  0  0  0  0  0  0  0  0
   -1.8992   -2.6555    0.5701 C   0  0  0  0  0  0  0  0  0  0  0  0
   -1.3678   -3.2652   -0.1889 H   0  0  0  0  0  0  0  0  0  0  0  0
   -2.4340   -3.3202    1.2718 H   0  0  0  0  0  0  0  0  0  0  0  0
   -1.1118   -2.0962    1.1169 H   0  0  0  0  0  0  0  0  0  0  0  0
  1  8  1  0  0  0  0
  2  1  1  0  0  0  0
  3 11  1  1  0  0  0
  3  4  1  0  0  0  0
  3  1  1  0  0  0  0
  4  9  2  0  0  0  0
  5  4  1  0  0  0  0
  6  7  1  0  0  0  0
  8  6  2  0  0  0  0
  8 15  1  0  0  0  0
  9 10  1  0  0  0  0
  9  6  1  0  0  0  0
 11 12  1  0  0  0  0
 13 11  1  0  0  0  0
 14 11  1  0  0  0  0
 15 18  1  0  0  0  0
 15 17  1  0  0  0  0
 16 15  1  0  0  0  0
M  END
