1
 OpenBabel05122313063D

 20 21  0  0  0  0  0  0  0  0999 V2000
    0.6274   -0.0875    0.3729 O   0  5  0  0  0  0  0  0  0  0  0  0
    1.5039    0.8428    0.2401 C   0  0  0  0  0  0  0  0  0  0  0  0
    0.7397    3.2488    0.2996 O   0  0  0  0  0  0  0  0  0  0  0  0
    1.5603    2.3225    0.1984 C   0  0  0  0  0  0  0  0  0  0  0  0
    3.9904    3.0380   -0.0934 O   0  0  0  0  0  0  0  0  0  0  0  0
    3.0778    2.2386    0.0421 C   0  0  0  0  0  0  0  0  0  0  0  0
    2.9280    0.7507    0.1463 C   0  0  0  0  0  0  0  0  0  0  0  0
    3.6811   -0.3679    0.1737 N   0  0  0  0  0  0  0  0  0  0  0  0
    3.1478   -1.2353    0.2983 H   0  0  0  0  0  0  0  0  0  0  0  0
    5.6008   -1.8348    0.1366 C   0  0  0  0  0  0  0  0  0  0  0  0
    4.9193   -2.6926    0.2581 H   0  0  0  0  0  0  0  0  0  0  0  0
    6.9823   -2.0422    0.0425 C   0  0  0  0  0  0  0  0  0  0  0  0
    7.3796   -3.0674    0.0918 H   0  0  0  0  0  0  0  0  0  0  0  0
    7.8526   -0.9518   -0.1137 C   0  0  0  0  0  0  0  0  0  0  0  0
    8.9380   -1.1144   -0.1879 H   0  0  0  0  0  0  0  0  0  0  0  0
    7.3223    0.3479   -0.1743 C   0  0  0  0  0  0  0  0  0  0  0  0
    7.9945    1.2107   -0.2968 H   0  0  0  0  0  0  0  0  0  0  0  0
    5.9431    0.5757   -0.0818 C   0  0  0  0  0  0  0  0  0  0  0  0
    5.5349    1.5989   -0.1294 H   0  0  0  0  0  0  0  0  0  0  0  0
    5.0753   -0.5258    0.0753 C   0  0  0  0  0  0  0  0  0  0  0  0
  2  1  1  0  0  0  0
  4  2  1  0  0  0  0
  4  3  2  0  0  0  0
  5  6  2  0  0  0  0
  6  7  1  0  0  0  0
  6  4  1  0  0  0  0
  7  8  1  0  0  0  0
  7  2  2  0  0  0  0
  8  9  1  0  0  0  0
 10 11  1  0  0  0  0
 12 13  1  0  0  0  0
 12 10  2  0  0  0  0
 14 12  1  0  0  0  0
 15 14  1  0  0  0  0
 16 14  2  0  0  0  0
 16 18  1  0  0  0  0
 17 16  1  0  0  0  0
 18 20  2  0  0  0  0
 19 18  1  0  0  0  0
 20 10  1  0  0  0  0
 20  8  1  0  0  0  0
M  CHG  1   1  -1
M  END
