3
 OpenBabel05122313063D

 21 21  0  0  0  0  0  0  0  0999 V2000
   -2.7525    2.3818   -1.2250 O   0  0  0  0  0  0  0  0  0  0  0  0
   -3.1391    1.9006   -1.9808 H   0  0  0  0  0  0  0  0  0  0  0  0
    2.0075   -1.0586   -0.9672 O   0  5  0  0  0  0  0  0  0  0  0  0
    3.3662   -0.3455    0.6886 O   0  0  0  0  0  0  0  0  0  0  0  0
    2.9775   -0.3280   -0.5140 C   0  0  0  0  0  0  0  0  0  0  0  0
    3.5911    0.6499   -1.4920 C   0  0  0  0  0  0  0  0  0  0  0  0
    3.4250    0.2765   -2.5204 H   0  0  0  0  0  0  0  0  0  0  0  0
    4.6815    0.7188   -1.3134 H   0  0  0  0  0  0  0  0  0  0  0  0
    2.9668    2.0547   -1.3063 C   0  0  0  0  0  0  0  0  0  0  0  0
    3.3289    2.4774   -0.3470 H   0  0  0  0  0  0  0  0  0  0  0  0
    3.3787    2.7124   -2.1029 H   0  0  0  0  0  0  0  0  0  0  0  0
    1.4506    2.1180   -1.3223 C   0  0  0  0  0  0  0  0  0  0  0  0
    0.7719    3.0069   -0.4616 C   0  0  0  0  0  0  0  0  0  0  0  0
    1.3569    3.6485    0.2167 H   0  0  0  0  0  0  0  0  0  0  0  0
   -0.6241    3.1073   -0.4518 C   0  0  0  0  0  0  0  0  0  0  0  0
   -1.1409    3.8168    0.2098 H   0  0  0  0  0  0  0  0  0  0  0  0
   -1.3898    2.2922   -1.3057 C   0  0  0  0  0  0  0  0  0  0  0  0
   -0.7344    1.4031   -2.1780 C   0  0  0  0  0  0  0  0  0  0  0  0
   -1.3243    0.7686   -2.8605 H   0  0  0  0  0  0  0  0  0  0  0  0
    0.6661    1.3305   -2.1899 C   0  0  0  0  0  0  0  0  0  0  0  0
    1.1489    0.6254   -2.8805 H   0  0  0  0  0  0  0  0  0  0  0  0
  2  1  1  0  0  0  0
  3  5  1  0  0  0  0
  5  4  2  0  0  0  0
  6  8  1  0  0  0  0
  6  9  1  0  0  0  0
  6  5  1  0  0  0  0
  7  6  1  0  0  0  0
  9 10  1  0  0  0  0
 11  9  1  0  0  0  0
 12  9  1  0  0  0  0
 12 13  1  0  0  0  0
 13 15  2  0  0  0  0
 13 14  1  0  0  0  0
 15 16  1  0  0  0  0
 17  1  1  0  0  0  0
 17 15  1  0  0  0  0
 18 17  2  0  0  0  0
 19 18  1  0  0  0  0
 20 18  1  0  0  0  0
 20 12  2  0  0  0  0
 21 20  1  0  0  0  0
M  CHG  1   3  -1
M  END
