1
 OpenBabel05122313063D

 29 31  0  0  0  0  0  0  0  0999 V2000
   -1.1301   -0.9746    0.4998 O   0  5  0  0  0  0  0  0  0  0  0  0
   -0.9792    0.6620    1.2751 H   0  0  0  0  0  0  0  0  0  0  0  0
   -1.6691    1.4105    1.4967 N   0  0  0  0  0  4  0  0  0  0  0  0
   -2.4160   -1.1447    0.3254 C   0  0  0  0  0  0  0  0  0  0  0  0
   -3.3672   -0.1049    0.6303 C   0  0  0  0  0  0  0  0  0  0  0  0
   -2.9056   -2.3991   -0.1740 C   0  0  0  0  0  0  0  0  0  0  0  0
   -2.1634   -3.1832   -0.3812 H   0  0  0  0  0  0  0  0  0  0  0  0
   -6.5984   -1.8045   -0.4158 C   0  0  0  0  0  0  0  0  0  0  0  0
   -6.9036   -2.7930   -0.7931 H   0  0  0  0  0  0  0  0  0  0  0  0
   -7.5391   -0.8018   -0.2189 C   0  0  0  0  0  0  0  0  0  0  0  0
   -8.6026   -0.9833   -0.4332 H   0  0  0  0  0  0  0  0  0  0  0  0
   -7.1121    0.4636    0.2453 C   0  0  0  0  0  0  0  0  0  0  0  0
   -7.8459    1.2724    0.3815 H   0  0  0  0  0  0  0  0  0  0  0  0
   -5.7695    0.7073    0.5222 C   0  0  0  0  0  0  0  0  0  0  0  0
   -5.4815    1.7146    0.8514 H   0  0  0  0  0  0  0  0  0  0  0  0
   -5.2214   -1.5777   -0.1477 C   0  0  0  0  0  0  0  0  0  0  0  0
   -4.7842   -0.3019    0.3507 C   0  0  0  0  0  0  0  0  0  0  0  0
   -2.9218    1.1241    1.1889 C   0  0  0  0  0  0  0  0  0  0  0  0
   -3.6507    1.9160    1.4112 H   0  0  0  0  0  0  0  0  0  0  0  0
   -1.1972    2.6603    2.0225 C   0  0  0  0  0  0  0  0  0  0  0  0
   -0.7444    2.5500    3.0231 H   0  0  0  0  0  0  0  0  0  0  0  0
   -0.5450    3.6605    1.0975 C   0  0  0  0  0  0  0  0  0  0  0  0
   -0.5417    3.4078    0.0268 H   0  0  0  0  0  0  0  0  0  0  0  0
    0.3526    4.1801    1.4647 H   0  0  0  0  0  0  0  0  0  0  0  0
   -1.8968    3.9559    1.7055 C   0  0  0  0  0  0  0  0  0  0  0  0
   -1.9801    4.6973    2.5145 H   0  0  0  0  0  0  0  0  0  0  0  0
   -2.7440    3.9302    1.0009 H   0  0  0  0  0  0  0  0  0  0  0  0
   -4.2496   -2.6028   -0.3873 C   0  0  0  0  0  0  0  0  0  0  0  0
   -4.6035   -3.5738   -0.7699 H   0  0  0  0  0  0  0  0  0  0  0  0
  2  3  1  0  0  0  0
  3 20  1  0  0  0  0
  4  1  1  0  0  0  0
  4  5  1  0  0  0  0
  5 18  1  0  0  0  0
  6  4  2  0  0  0  0
  7  6  1  0  0  0  0
  8 10  2  0  0  0  0
  8 16  1  0  0  0  0
  9  8  1  0  0  0  0
 10 12  1  0  0  0  0
 11 10  1  0  0  0  0
 12 13  1  0  0  0  0
 12 14  2  0  0  0  0
 14 15  1  0  0  0  0
 16 17  1  0  0  0  0
 17 14  1  0  0  0  0
 17  5  2  0  0  0  0
 18 19  1  0  0  0  0
 18  3  2  0  0  0  0
 20 21  1  0  0  0  0
 22 24  1  0  0  0  0
 22 25  1  0  0  0  0
 22 20  1  0  0  0  0
 23 22  1  0  0  0  0
 25 20  1  0  0  0  0
 25 26  1  0  0  0  0
 27 25  1  0  0  0  0
 28  6  1  0  0  0  0
 28 16  2  0  0  0  0
 29 28  1  0  0  0  0
M  CHG  1   1  -1
M  END
