1
 OpenBabel05122313063D

 35 37  0  0  0  0  0  0  0  0999 V2000
   -1.8334   -0.5238    0.7923 O   0  5  0  0  0  0  0  0  0  0  0  0
   -1.3421    1.3219   -0.8957 N   0  0  0  0  0  4  0  0  0  0  0  0
   -1.1000    0.7232   -0.0648 H   0  0  0  0  0  0  0  0  0  0  0  0
   -3.4297    0.0835   -0.8583 C   0  0  0  0  0  0  0  0  0  0  0  0
   -2.9664   -0.7649    0.2258 C   0  0  0  0  0  0  0  0  0  0  0  0
   -3.7820   -1.8826    0.6294 C   0  0  0  0  0  0  0  0  0  0  0  0
   -3.3635   -2.5629    1.3877 H   0  0  0  0  0  0  0  0  0  0  0  0
   -5.0058   -2.0968    0.0461 C   0  0  0  0  0  0  0  0  0  0  0  0
   -5.6173   -2.9561    0.3657 H   0  0  0  0  0  0  0  0  0  0  0  0
   -5.5370   -1.2377   -0.9779 C   0  0  0  0  0  0  0  0  0  0  0  0
   -6.8210   -1.4767   -1.5333 C   0  0  0  0  0  0  0  0  0  0  0  0
   -7.4014   -2.3350   -1.1602 H   0  0  0  0  0  0  0  0  0  0  0  0
   -7.3411   -0.6502   -2.5239 C   0  0  0  0  0  0  0  0  0  0  0  0
   -8.3380   -0.8440   -2.9465 H   0  0  0  0  0  0  0  0  0  0  0  0
   -6.5763    0.4472   -2.9776 C   0  0  0  0  0  0  0  0  0  0  0  0
   -6.9810    1.1141   -3.7540 H   0  0  0  0  0  0  0  0  0  0  0  0
   -5.3126    0.7016   -2.4467 C   0  0  0  0  0  0  0  0  0  0  0  0
   -4.7596    1.5777   -2.8157 H   0  0  0  0  0  0  0  0  0  0  0  0
   -4.7501   -0.1291   -1.4422 C   0  0  0  0  0  0  0  0  0  0  0  0
   -2.5502    1.0606   -1.3787 C   0  0  0  0  0  0  0  0  0  0  0  0
   -2.8424    1.6451   -2.2679 H   0  0  0  0  0  0  0  0  0  0  0  0
   -0.3815    2.2223   -1.4948 C   0  0  0  0  0  0  0  0  0  0  0  0
   -0.0840    2.9825   -0.7444 H   0  0  0  0  0  0  0  0  0  0  0  0
   -0.8918    2.7713   -2.3166 H   0  0  0  0  0  0  0  0  0  0  0  0
    0.8583    1.5246   -2.0260 C   0  0  0  0  0  0  0  0  0  0  0  0
    0.8311    0.1826   -2.4451 C   0  0  0  0  0  0  0  0  0  0  0  0
   -0.0877   -0.4107   -2.3242 H   0  0  0  0  0  0  0  0  0  0  0  0
    1.9772   -0.4136   -2.9939 C   0  0  0  0  0  0  0  0  0  0  0  0
    1.9468   -1.4697   -3.3000 H   0  0  0  0  0  0  0  0  0  0  0  0
    3.1613    0.3242   -3.1330 C   0  0  0  0  0  0  0  0  0  0  0  0
    4.0637   -0.1500   -3.5462 H   0  0  0  0  0  0  0  0  0  0  0  0
    3.2001    1.6600   -2.7020 C   0  0  0  0  0  0  0  0  0  0  0  0
    4.1331    2.2377   -2.7884 H   0  0  0  0  0  0  0  0  0  0  0  0
    2.0589    2.2535   -2.1440 C   0  0  0  0  0  0  0  0  0  0  0  0
    2.0917    3.2988   -1.7962 H   0  0  0  0  0  0  0  0  0  0  0  0
  2  3  1  0  0  0  0
  4  5  1  0  0  0  0
  5  6  2  0  0  0  0
  5  1  1  0  0  0  0
  6  7  1  0  0  0  0
  8  9  1  0  0  0  0
  8  6  1  0  0  0  0
 10  8  2  0  0  0  0
 11 12  1  0  0  0  0
 11 10  1  0  0  0  0
 13 11  2  0  0  0  0
 14 13  1  0  0  0  0
 15 13  1  0  0  0  0
 15 17  2  0  0  0  0
 16 15  1  0  0  0  0
 17 19  1  0  0  0  0
 18 17  1  0  0  0  0
 19 10  1  0  0  0  0
 19  4  2  0  0  0  0
 20  2  2  0  0  0  0
 20  4  1  0  0  0  0
 21 20  1  0  0  0  0
 22  2  1  0  0  0  0
 22 23  1  0  0  0  0
 24 22  1  0  0  0  0
 25 22  1  0  0  0  0
 26 27  1  0  0  0  0
 26 25  2  0  0  0  0
 28 26  1  0  0  0  0
 29 28  1  0  0  0  0
 30 28  2  0  0  0  0
 30 32  1  0  0  0  0
 31 30  1  0  0  0  0
 32 34  2  0  0  0  0
 33 32  1  0  0  0  0
 34 25  1  0  0  0  0
 34 35  1  0  0  0  0
M  CHG  1   1  -1
M  END
