1
 OpenBabel05122313063D

 12 12  0  0  0  0  0  0  0  0999 V2000
    0.0421    1.5760    0.1383 O   0  5  0  0  0  0  0  0  0  0  0  0
   -1.0136    2.3923    0.1205 C   0  0  0  0  0  0  0  0  0  0  0  0
   -1.3462    3.1079   -1.0597 C   0  0  0  0  0  0  0  0  0  0  0  0
   -0.7148    2.9660   -1.9493 H   0  0  0  0  0  0  0  0  0  0  0  0
   -2.4587    3.9580   -1.0897 C   0  0  0  0  0  0  0  0  0  0  0  0
   -2.7053    4.4912   -2.0217 H   0  0  0  0  0  0  0  0  0  0  0  0
   -3.2591    4.1374    0.0529 C   0  0  0  0  0  0  0  0  0  0  0  0
   -4.1326    4.8054    0.0238 H   0  0  0  0  0  0  0  0  0  0  0  0
   -2.9143    3.4647    1.2371 C   0  0  0  0  0  0  0  0  0  0  0  0
   -3.5175    3.6102    2.1475 H   0  0  0  0  0  0  0  0  0  0  0  0
   -1.8062    2.6060    1.2778 C   0  0  0  0  0  0  0  0  0  0  0  0
   -1.5280    2.0862    2.2061 H   0  0  0  0  0  0  0  0  0  0  0  0
  2  1  1  0  0  0  0
  2 11  1  0  0  0  0
  3  2  2  0  0  0  0
  4  3  1  0  0  0  0
  5  3  1  0  0  0  0
  5  7  2  0  0  0  0
  6  5  1  0  0  0  0
  7  9  1  0  0  0  0
  8  7  1  0  0  0  0
  9 11  2  0  0  0  0
  9 10  1  0  0  0  0
 11 12  1  0  0  0  0
M  CHG  1   1  -1
M  END
