4
 OpenBabel05122313063D

 18 18  0  0  1  0  0  0  0  0999 V2000
   -3.8247    2.1886   -1.6154 F   0  0  0  0  0  0  0  0  0  0  0  0
   -4.8713    0.9230   -0.1782 F   0  0  0  0  0  0  0  0  0  0  0  0
   -3.3662    2.3559    0.5076 F   0  0  0  0  0  0  0  0  0  0  0  0
   -1.3880    1.0460   -0.8693 O   0  0  0  0  0  1  0  0  0  0  0  0
   -2.5929    0.3846   -0.6587 C   0  0  1  0  0  0  0  0  0  0  0  0
   -2.9264   -0.1951   -1.5558 H   0  0  0  0  0  0  0  0  0  0  0  0
   -2.5472   -0.5900    0.5201 C   0  0  0  0  0  0  0  0  0  0  0  0
   -2.3257   -0.1496    1.8424 C   0  0  0  0  0  0  0  0  0  0  0  0
   -2.2842    0.9290    2.0495 H   0  0  0  0  0  0  0  0  0  0  0  0
   -2.1870   -1.0709    2.8914 C   0  0  0  0  0  0  0  0  0  0  0  0
   -2.0259   -0.7096    3.9192 H   0  0  0  0  0  0  0  0  0  0  0  0
   -2.2691   -2.4506    2.6366 C   0  0  0  0  0  0  0  0  0  0  0  0
   -2.1608   -3.1737    3.4597 H   0  0  0  0  0  0  0  0  0  0  0  0
   -2.4972   -2.8988    1.3259 C   0  0  0  0  0  0  0  0  0  0  0  0
   -2.5669   -3.9774    1.1154 H   0  0  0  0  0  0  0  0  0  0  0  0
   -2.6338   -1.9748    0.2781 C   0  0  0  0  0  0  0  0  0  0  0  0
   -2.7797   -2.3224   -0.7558 H   0  0  0  0  0  0  0  0  0  0  0  0
   -3.6691    1.4694   -0.4839 C   0  0  0  0  0  0  0  0  0  0  0  0
  1 18  1  0  0  0  0
  4  5  1  0  0  0  0
  5  6  1  6  0  0  0
  5 18  1  0  0  0  0
  5  7  1  0  0  0  0
  7  8  1  0  0  0  0
  8  9  1  0  0  0  0
  8 10  2  0  0  0  0
 10 11  1  0  0  0  0
 12 10  1  0  0  0  0
 12 13  1  0  0  0  0
 14 12  2  0  0  0  0
 15 14  1  0  0  0  0
 16  7  2  0  0  0  0
 16 14  1  0  0  0  0
 17 16  1  0  0  0  0
 18  2  1  0  0  0  0
 18  3  1  0  0  0  0
M  END
