1
 OpenBabel05122313063D

  3  2  0  0  0  0  0  0  0  0999 V2000
   -0.7082   -2.8222    0.0966 O   0  0  0  0  0  1  0  0  0  0  0  0
    0.6745   -2.9137    0.2768 N   0  0  0  0  0  2  0  0  0  0  0  0
    0.8011   -2.9320    1.3181 H   0  0  0  0  0  0  0  0  0  0  0  0
  1  2  1  0  0  0  0
  2  3  1  0  0  0  0
M  END
