1
 OpenBabel05122313063D

 40 43  0  0  1  0  0  0  0  0999 V2000
    0.8095   -0.4853   -1.2547 O   0  5  0  0  0  0  0  0  0  0  0  0
    3.1010    0.5334   -0.8047 N   0  0  0  0  0  4  0  0  0  0  0  0
    2.3674   -0.2380   -0.8293 H   0  0  0  0  0  0  0  0  0  0  0  0
    1.2201    1.8479   -1.5242 C   0  0  0  0  0  0  0  0  0  0  0  0
    0.3451    0.6882   -1.5647 C   0  0  0  0  0  0  0  0  0  0  0  0
   -1.0129    0.8928   -1.9547 C   0  0  0  0  0  0  0  0  0  0  0  0
   -1.6595    0.0040   -1.9909 H   0  0  0  0  0  0  0  0  0  0  0  0
   -1.4740    2.1669   -2.2625 C   0  0  0  0  0  0  0  0  0  0  0  0
   -2.5266    2.2992   -2.5619 H   0  0  0  0  0  0  0  0  0  0  0  0
   -0.6232    3.3027   -2.2068 C   0  0  0  0  0  0  0  0  0  0  0  0
   -1.0135    4.3001   -2.4544 H   0  0  0  0  0  0  0  0  0  0  0  0
    0.7077    3.1349   -1.8483 C   0  0  0  0  0  0  0  0  0  0  0  0
    1.3880    4.0010   -1.8035 H   0  0  0  0  0  0  0  0  0  0  0  0
    2.5919    1.6931   -1.1542 C   0  0  0  0  0  0  0  0  0  0  0  0
    3.2523    2.5775   -1.1579 H   0  0  0  0  0  0  0  0  0  0  0  0
    4.4726    0.1973   -0.4210 C   0  0  2  0  0  0  0  0  0  0  0  0
    4.5077   -0.1157    1.0975 C   0  0  0  0  0  0  0  0  0  0  0  0
    3.7642   -0.9107    1.3148 H   0  0  0  0  0  0  0  0  0  0  0  0
    4.2127    0.7971    1.6580 H   0  0  0  0  0  0  0  0  0  0  0  0
    5.9241   -0.5654    1.4987 C   0  0  1  0  0  0  0  0  0  0  0  0
    5.9333   -0.7814    2.5877 H   0  0  0  0  0  0  0  0  0  0  0  0
    6.2936   -1.8392    0.7139 C   0  0  0  0  0  0  0  0  0  0  0  0
    5.5727   -2.6500    0.9484 H   0  0  0  0  0  0  0  0  0  0  0  0
    7.3018   -2.1944    1.0165 H   0  0  0  0  0  0  0  0  0  0  0  0
    6.2703   -1.5347   -0.7964 C   0  0  2  0  0  0  0  0  0  0  0  0
    6.5322   -2.4499   -1.3674 H   0  0  0  0  0  0  0  0  0  0  0  0
    7.2730   -0.4107   -1.1200 C   0  0  0  0  0  0  0  0  0  0  0  0
    8.3039   -0.7258   -0.8520 H   0  0  0  0  0  0  0  0  0  0  0  0
    7.2732   -0.1996   -2.2111 H   0  0  0  0  0  0  0  0  0  0  0  0
    6.8953    0.8596   -0.3329 C   0  0  1  0  0  0  0  0  0  0  0  0
    7.6119    1.6743   -0.5688 H   0  0  0  0  0  0  0  0  0  0  0  0
    5.4766    1.3183   -0.7336 C   0  0  0  0  0  0  0  0  0  0  0  0
    5.2135    2.2405   -0.1707 H   0  0  0  0  0  0  0  0  0  0  0  0
    5.4426    1.5663   -1.8169 H   0  0  0  0  0  0  0  0  0  0  0  0
    4.8561   -1.0850   -1.2014 C   0  0  0  0  0  0  0  0  0  0  0  0
    4.8061   -0.8744   -2.2910 H   0  0  0  0  0  0  0  0  0  0  0  0
    4.1086   -1.8744   -0.9724 H   0  0  0  0  0  0  0  0  0  0  0  0
    6.9296    0.5561    1.1780 C   0  0  0  0  0  0  0  0  0  0  0  0
    7.9548    0.2514    1.4779 H   0  0  0  0  0  0  0  0  0  0  0  0
    6.6820    1.4712    1.7586 H   0  0  0  0  0  0  0  0  0  0  0  0
  3  2  1  0  0  0  0
  4 14  1  0  0  0  0
  5  4  1  0  0  0  0
  5  1  1  0  0  0  0
  6  5  2  0  0  0  0
  7  6  1  0  0  0  0
  8 10  2  0  0  0  0
  8  6  1  0  0  0  0
  9  8  1  0  0  0  0
 10 12  1  0  0  0  0
 11 10  1  0  0  0  0
 12 13  1  0  0  0  0
 12  4  2  0  0  0  0
 14  2  2  0  0  0  0
 15 14  1  0  0  0  0
 16  2  1  6  0  0  0
 16 17  1  0  0  0  0
 17 18  1  0  0  0  0
 17 20  1  0  0  0  0
 17 19  1  0  0  0  0
 20 21  1  1  0  0  0
 22 23  1  0  0  0  0
 22 24  1  0  0  0  0
 22 20  1  0  0  0  0
 25 26  1  6  0  0  0
 25 22  1  0  0  0  0
 27 28  1  0  0  0  0
 27 25  1  0  0  0  0
 27 30  1  0  0  0  0
 29 27  1  0  0  0  0
 30 31  1  6  0  0  0
 30 38  1  0  0  0  0
 32 16  1  0  0  0  0
 32 30  1  0  0  0  0
 32 33  1  0  0  0  0
 34 32  1  0  0  0  0
 35 37  1  0  0  0  0
 35 25  1  0  0  0  0
 35 16  1  0  0  0  0
 36 35  1  0  0  0  0
 38 39  1  0  0  0  0
 38 20  1  0  0  0  0
 38 40  1  0  0  0  0
M  CHG  1   1  -1
M  END
