1
 OpenBabel05122313063D

 18 18  0  0  0  0  0  0  0  0999 V2000
    1.2330    0.2284   -0.7387 O   0  5  0  0  0  0  0  0  0  0  0  0
    2.4186    0.5448   -0.2105 C   0  0  0  0  0  0  0  0  0  0  0  0
    3.6138   -0.0736   -0.6829 C   0  0  0  0  0  0  0  0  0  0  0  0
    4.8498    0.3508   -0.1512 C   0  0  0  0  0  0  0  0  0  0  0  0
    5.7532   -0.1356   -0.5481 H   0  0  0  0  0  0  0  0  0  0  0  0
    4.7077   -1.6106   -2.1695 O   0  0  0  0  0  0  0  0  0  0  0  0
    4.9220    1.3253    0.8477 C   0  0  0  0  0  0  0  0  0  0  0  0
    5.8973    1.6317    1.2531 H   0  0  0  0  0  0  0  0  0  0  0  0
    2.4579   -1.7260   -1.9454 O   0  0  0  0  0  0  0  0  0  0  0  0
    3.7342    1.9004    1.3352 C   0  0  0  0  0  0  0  0  0  0  0  0
    3.7717    2.6588    2.1322 H   0  0  0  0  0  0  0  0  0  0  0  0
    2.4949    1.5199    0.8116 C   0  0  0  0  0  0  0  0  0  0  0  0
    1.5600    1.9650    1.1763 H   0  0  0  0  0  0  0  0  0  0  0  0
    3.6724   -1.1866   -1.6795 C   0  0  0  0  0  0  0  0  0  0  0  0
    2.4501   -2.8460   -2.8350 C   0  0  0  0  0  0  0  0  0  0  0  0
    2.8304   -2.5569   -3.8355 H   0  0  0  0  0  0  0  0  0  0  0  0
    1.3957   -3.1682   -2.8948 H   0  0  0  0  0  0  0  0  0  0  0  0
    3.0895   -3.6633   -2.4440 H   0  0  0  0  0  0  0  0  0  0  0  0
  1  2  1  0  0  0  0
  2 12  1  0  0  0  0
  3  2  2  0  0  0  0
  3  4  1  0  0  0  0
  4  7  2  0  0  0  0
  5  4  1  0  0  0  0
  6 14  2  0  0  0  0
  7  8  1  0  0  0  0
  7 10  1  0  0  0  0
  9 14  1  0  0  0  0
 10 11  1  0  0  0  0
 12 13  1  0  0  0  0
 12 10  2  0  0  0  0
 14  3  1  0  0  0  0
 15 18  1  0  0  0  0
 15  9  1  0  0  0  0
 16 15  1  0  0  0  0
 17 15  1  0  0  0  0
M  CHG  1   1  -1
M  END
