2
 OpenBabel05122313063D

 18 18  0  0  0  0  0  0  0  0999 V2000
    4.3525   -1.1573   -1.1215 O   0  0  0  0  0  0  0  0  0  0  0  0
   -0.2054   -0.9866   -1.4084 O   0  5  0  0  0  0  0  0  0  0  0  0
    1.9699   -1.3620    2.8197 O   0  0  0  0  0  0  0  0  0  0  0  0
    3.1712   -1.3126    0.8403 N   0  0  0  0  0  0  0  0  0  0  0  0
    2.0503   -1.2118   -1.2515 N   0  0  0  0  0  0  0  0  0  0  0  0
    4.4239   -1.2245    1.5798 C   0  0  0  0  0  0  0  0  0  0  0  0
    4.1783   -1.4001    2.6416 H   0  0  0  0  0  0  0  0  0  0  0  0
    4.8685   -0.2163    1.4575 H   0  0  0  0  0  0  0  0  0  0  0  0
    5.1450   -1.9734    1.2021 H   0  0  0  0  0  0  0  0  0  0  0  0
    3.2700   -1.2296   -0.5421 C   0  0  0  0  0  0  0  0  0  0  0  0
    2.0986   -1.1456   -2.7088 C   0  0  0  0  0  0  0  0  0  0  0  0
    1.6628   -2.0625   -3.1547 H   0  0  0  0  0  0  0  0  0  0  0  0
    3.1616   -1.0594   -2.9919 H   0  0  0  0  0  0  0  0  0  0  0  0
    1.5195   -0.2774   -3.0753 H   0  0  0  0  0  0  0  0  0  0  0  0
    0.8148   -1.1589   -0.6113 C   0  0  0  0  0  0  0  0  0  0  0  0
    0.7645   -1.2758    0.7740 C   0  0  0  0  0  0  0  0  0  0  0  0
   -0.2006   -1.2152    1.2922 H   0  0  0  0  0  0  0  0  0  0  0  0
    1.9483   -1.3322    1.5818 C   0  0  0  0  0  0  0  0  0  0  0  0
  1 10  2  0  0  0  0
  2 15  1  0  0  0  0
  4  6  1  0  0  0  0
  4 18  1  0  0  0  0
  5 15  1  0  0  0  0
  5 10  1  0  0  0  0
  6  7  1  0  0  0  0
  8  6  1  0  0  0  0
  9  6  1  0  0  0  0
 10  4  1  0  0  0  0
 11  5  1  0  0  0  0
 12 11  1  0  0  0  0
 13 11  1  0  0  0  0
 14 11  1  0  0  0  0
 15 16  2  0  0  0  0
 16 17  1  0  0  0  0
 16 18  1  0  0  0  0
 18  3  2  0  0  0  0
M  CHG  1   2  -1
M  END
