8
 OpenBabel05122313063D

 17 17  0  0  1  0  0  0  0  0999 V2000
    2.7417    1.0261   -0.1453 C   0  0  0  0  0  0  0  0  0  0  0  0
    3.2224   -0.0521    0.6965 C   0  0  0  0  0  0  0  0  0  0  0  0
    4.5615   -0.2649    0.8615 C   0  0  1  0  0  3  0  0  0  0  0  0
    5.1916   -1.3358    1.6847 C   0  0  0  0  0  0  0  0  0  0  0  0
    6.2654    2.3054   -1.1140 C   0  0  0  0  0  0  0  0  0  0  0  0
    5.1021    1.5666   -0.5422 C   0  0  0  0  0  0  0  0  0  0  0  0
    3.7784    1.8422   -0.7473 C   0  0  0  0  0  0  0  0  0  0  0  0
    1.5203    1.2725   -0.3566 O   0  5  0  0  0  0  0  0  0  0  0  0
    5.4903    0.5275    0.2458 O   0  0  0  0  0  0  0  0  0  0  0  0
    2.4946   -0.6915    1.2182 H   0  0  0  0  0  0  0  0  0  0  0  0
    4.4159   -1.9401    2.1869 H   0  0  0  0  0  0  0  0  0  0  0  0
    5.8088   -2.0014    1.0465 H   0  0  0  0  0  0  0  0  0  0  0  0
    5.8646   -0.8964    2.4495 H   0  0  0  0  0  0  0  0  0  0  0  0
    6.9109    2.7013   -0.3031 H   0  0  0  0  0  0  0  0  0  0  0  0
    6.8920    1.6255   -1.7273 H   0  0  0  0  0  0  0  0  0  0  0  0
    5.9235    3.1448   -1.7447 H   0  0  0  0  0  0  0  0  0  0  0  0
    3.4811    2.6809   -1.3908 H   0  0  0  0  0  0  0  0  0  0  0  0
  1  2  2  0  0  0  0
  2  3  1  0  0  0  0
  2 10  1  0  0  0  0
  3  4  1  6  0  0  0
  4 11  1  0  0  0  0
  4 13  1  0  0  0  0
  5  6  1  0  0  0  0
  5 14  1  0  0  0  0
  6  9  1  0  0  0  0
  7  6  2  0  0  0  0
  7  1  1  0  0  0  0
  8  1  1  0  0  0  0
  9  3  1  0  0  0  0
 12  4  1  0  0  0  0
 15  5  1  0  0  0  0
 16  5  1  0  0  0  0
 17  7  1  0  0  0  0
M  CHG  1   8  -1
M  END
