6
 OpenBabel05122313063D

 12 12  0  0  0  0  0  0  0  0999 V2000
   -1.5686   -1.7788    0.0417 F   0  0  0  0  0  0  0  0  0  0  0  0
   -3.8121   -3.3464   -0.0674 F   0  0  0  0  0  0  0  0  0  0  0  0
   -6.3094   -2.1876   -0.0931 F   0  0  0  0  0  0  0  0  0  0  0  0
   -6.5338    0.5468   -0.0010 F   0  0  0  0  0  0  0  0  0  0  0  0
   -4.2924    2.1174    0.1079 F   0  0  0  0  0  0  0  0  0  0  0  0
   -1.8020    0.9821    0.1694 O   0  0  0  0  0  0  0  0  0  0  0  0
   -2.8614    0.2184    0.1050 C   0  0  0  0  0  0  0  0  0  0  0  0
   -2.7920   -1.2010    0.0395 C   0  0  0  0  0  0  0  0  0  0  0  0
   -3.9331   -2.0125   -0.0169 C   0  0  0  0  0  0  0  0  0  0  0  0
   -5.2092   -1.4229   -0.0369 C   0  0  0  0  0  0  0  0  0  0  0  0
   -5.3203   -0.0206    0.0176 C   0  0  0  0  0  0  0  0  0  0  0  0
   -4.1699    0.7782    0.0751 C   0  0  0  0  0  0  0  0  0  0  0  0
  2  9  1  0  0  0  0
  3 10  1  0  0  0  0
  4 11  1  0  0  0  0
  7  6  1  0  0  0  0
  8  1  1  0  0  0  0
  8  7  2  0  0  0  0
  9  8  1  0  0  0  0
 10  9  2  0  0  0  0
 10 11  1  0  0  0  0
 11 12  2  0  0  0  0
 12  7  1  0  0  0  0
 12  5  1  0  0  0  0
M  END
