1
 OpenBabel05122313063D

 36 36  0  0  0  0  0  0  0  0999 V2000
   -0.3064    1.0239   -0.5584 O   0  5  0  0  0  0  0  0  0  0  0  0
   -0.6407    2.3147   -0.6565 C   0  0  0  0  0  0  0  0  0  0  0  0
   -2.0330    2.6832   -0.7144 C   0  0  0  0  0  0  0  0  0  0  0  0
   -2.3708    4.0374   -0.8847 C   0  0  0  0  0  0  0  0  0  0  0  0
   -3.4280    4.3315   -0.9283 H   0  0  0  0  0  0  0  0  0  0  0  0
   -1.3955    5.0323   -1.0078 C   0  0  0  0  0  0  0  0  0  0  0  0
   -1.6866    6.0851   -1.1427 H   0  0  0  0  0  0  0  0  0  0  0  0
   -0.0453    4.6712   -0.9671 C   0  0  0  0  0  0  0  0  0  0  0  0
    0.7097    5.4613   -1.0752 H   0  0  0  0  0  0  0  0  0  0  0  0
    0.3675    3.3368   -0.7953 C   0  0  0  0  0  0  0  0  0  0  0  0
    1.8745    3.0045   -0.7314 C   0  0  0  0  0  0  0  0  0  0  0  0
    2.7637    4.2221   -1.0543 C   0  0  0  0  0  0  0  0  0  0  0  0
    2.5624    4.6224   -2.0684 H   0  0  0  0  0  0  0  0  0  0  0  0
    3.8296    3.9156   -1.0192 H   0  0  0  0  0  0  0  0  0  0  0  0
    2.6337    5.0465   -0.3248 H   0  0  0  0  0  0  0  0  0  0  0  0
    2.2226    2.5706    0.7090 C   0  0  0  0  0  0  0  0  0  0  0  0
    2.0553    3.4081    1.4155 H   0  0  0  0  0  0  0  0  0  0  0  0
    3.2837    2.2523    0.7911 H   0  0  0  0  0  0  0  0  0  0  0  0
    1.5965    1.7268    1.0482 H   0  0  0  0  0  0  0  0  0  0  0  0
    2.2427    1.9049   -1.7544 C   0  0  0  0  0  0  0  0  0  0  0  0
    1.6161    1.0066   -1.6230 H   0  0  0  0  0  0  0  0  0  0  0  0
    3.3119    1.6207   -1.6531 H   0  0  0  0  0  0  0  0  0  0  0  0
    2.0854    2.2778   -2.7871 H   0  0  0  0  0  0  0  0  0  0  0  0
   -3.1404    1.6151   -0.6035 C   0  0  0  0  0  0  0  0  0  0  0  0
   -4.5530    2.2141   -0.7487 C   0  0  0  0  0  0  0  0  0  0  0  0
   -4.7777    2.9567    0.0434 H   0  0  0  0  0  0  0  0  0  0  0  0
   -5.3042    1.4018   -0.6652 H   0  0  0  0  0  0  0  0  0  0  0  0
   -4.6975    2.7041   -1.7329 H   0  0  0  0  0  0  0  0  0  0  0  0
   -2.9767    0.5679   -1.7297 C   0  0  0  0  0  0  0  0  0  0  0  0
   -3.0614    1.0581   -2.7212 H   0  0  0  0  0  0  0  0  0  0  0  0
   -3.7718   -0.2033   -1.6572 H   0  0  0  0  0  0  0  0  0  0  0  0
   -1.9877    0.0793   -1.6709 H   0  0  0  0  0  0  0  0  0  0  0  0
   -3.0823    0.9465    0.7871 C   0  0  0  0  0  0  0  0  0  0  0  0
   -2.0929    0.4962    0.9846 H   0  0  0  0  0  0  0  0  0  0  0  0
   -3.8420    0.1430    0.8736 H   0  0  0  0  0  0  0  0  0  0  0  0
   -3.2716    1.6928    1.5850 H   0  0  0  0  0  0  0  0  0  0  0  0
  2  1  1  0  0  0  0
  3  2  1  0  0  0  0
  3 24  1  0  0  0  0
  4  3  2  0  0  0  0
  5  4  1  0  0  0  0
  6  8  2  0  0  0  0
  6  4  1  0  0  0  0
  7  6  1  0  0  0  0
  8 10  1  0  0  0  0
  9  8  1  0  0  0  0
 10 11  1  0  0  0  0
 10  2  2  0  0  0  0
 11 16  1  0  0  0  0
 12 14  1  0  0  0  0
 12 11  1  0  0  0  0
 12 15  1  0  0  0  0
 13 12  1  0  0  0  0
 16 18  1  0  0  0  0
 16 19  1  0  0  0  0
 16 17  1  0  0  0  0
 20 22  1  0  0  0  0
 20 21  1  0  0  0  0
 20 11  1  0  0  0  0
 23 20  1  0  0  0  0
 24 33  1  0  0  0  0
 25 27  1  0  0  0  0
 25 24  1  0  0  0  0
 25 26  1  0  0  0  0
 28 25  1  0  0  0  0
 29 32  1  0  0  0  0
 29 31  1  0  0  0  0
 29 24  1  0  0  0  0
 30 29  1  0  0  0  0
 33 35  1  0  0  0  0
 33 34  1  0  0  0  0
 33 36  1  0  0  0  0
M  CHG  1   1  -1
M  END
