4
 OpenBabel05122313063D

 13 13  0  0  0  0  0  0  0  0999 V2000
   -5.3724   -0.5589    0.8237 Cl  0  0  0  0  0  0  0  0  0  0  0  0
   -6.4801    0.5610   -1.2485 N   0  0  0  0  0  0  0  0  0  0  0  0
   -2.5691    0.3653    0.5883 O   0  5  0  0  0  0  0  0  0  0  0  0
   -1.7085    0.4821   -1.4772 O   0  0  0  0  0  0  0  0  0  0  0  0
   -2.6935    0.4939   -0.6657 C   0  0  0  0  0  0  0  0  0  0  0  0
   -4.0588    0.7119   -1.2711 C   0  0  0  0  0  0  0  0  0  0  0  0
   -5.2982    0.3270   -0.6960 C   0  0  0  0  0  0  0  0  0  0  0  0
   -6.5273    1.2002   -2.4264 C   0  0  0  0  0  0  0  0  0  0  0  0
   -7.5340    1.3880   -2.8397 H   0  0  0  0  0  0  0  0  0  0  0  0
   -5.3767    1.6083   -3.1165 C   0  0  0  0  0  0  0  0  0  0  0  0
   -5.4529    2.1126   -4.0907 H   0  0  0  0  0  0  0  0  0  0  0  0
   -4.1357    1.3476   -2.5264 C   0  0  0  0  0  0  0  0  0  0  0  0
   -3.1880    1.6219   -3.0126 H   0  0  0  0  0  0  0  0  0  0  0  0
  2  7  1  0  0  0  0
  4  5  2  0  0  0  0
  5  3  1  0  0  0  0
  6  7  2  0  0  0  0
  6  5  1  0  0  0  0
  7  1  1  0  0  0  0
  8  2  2  0  0  0  0
  9  8  1  0  0  0  0
 10 12  2  0  0  0  0
 10  8  1  0  0  0  0
 11 10  1  0  0  0  0
 12  6  1  0  0  0  0
 13 12  1  0  0  0  0
M  CHG  1   3  -1
M  END
