2
 OpenBabel05122313063D

 20 20  0  0  0  0  0  0  0  0999 V2000
   -2.7798    1.9599    1.3903 O   0  5  0  0  0  0  0  0  0  0  0  0
   -1.6604    1.1283   -0.4072 O   0  0  0  0  0  0  0  0  0  0  0  0
  -10.8496   -2.2202    0.3817 O   0  0  0  0  0  0  0  0  0  0  0  0
   -9.9460   -3.1660   -1.3711 O   0  0  0  0  0  0  0  0  0  0  0  0
   -9.9161   -2.4141   -0.3967 N   0  0  0  0  0  0  0  0  0  0  0  0
   -2.6992    1.2363    0.3569 C   0  0  0  0  0  0  0  0  0  0  0  0
   -3.8719    0.4211   -0.0616 C   0  0  0  0  0  0  0  0  0  0  0  0
   -3.7257   -0.1906   -0.9647 H   0  0  0  0  0  0  0  0  0  0  0  0
   -5.0357    0.4432    0.6340 C   0  0  0  0  0  0  0  0  0  0  0  0
   -5.0581    1.0990    1.5217 H   0  0  0  0  0  0  0  0  0  0  0  0
   -6.2594   -0.3014    0.3390 C   0  0  0  0  0  0  0  0  0  0  0  0
   -7.3811   -0.1328    1.1891 C   0  0  0  0  0  0  0  0  0  0  0  0
   -7.3021    0.5523    2.0469 H   0  0  0  0  0  0  0  0  0  0  0  0
   -8.5775   -0.8168    0.9578 C   0  0  0  0  0  0  0  0  0  0  0  0
   -9.4570   -0.6994    1.6044 H   0  0  0  0  0  0  0  0  0  0  0  0
   -8.6520   -1.6824   -0.1403 C   0  0  0  0  0  0  0  0  0  0  0  0
   -7.5644   -1.8779   -1.0058 C   0  0  0  0  0  0  0  0  0  0  0  0
   -7.6779   -2.5690   -1.8515 H   0  0  0  0  0  0  0  0  0  0  0  0
   -6.3770   -1.1884   -0.7623 C   0  0  0  0  0  0  0  0  0  0  0  0
   -5.5221   -1.3389   -1.4369 H   0  0  0  0  0  0  0  0  0  0  0  0
  2  6  2  0  0  0  0
  4  5  2  0  0  0  0
  5 16  1  0  0  0  0
  5  3  2  0  0  0  0
  6  1  1  0  0  0  0
  7  6  1  0  0  0  0
  7  9  2  0  0  0  0
  8  7  1  0  0  0  0
  9 10  1  0  0  0  0
 11  9  1  0  0  0  0
 11 12  1  0  0  0  0
 12 13  1  0  0  0  0
 14 12  2  0  0  0  0
 14 15  1  0  0  0  0
 16 14  1  0  0  0  0
 17 19  1  0  0  0  0
 17 16  2  0  0  0  0
 18 17  1  0  0  0  0
 19 11  2  0  0  0  0
 20 19  1  0  0  0  0
M  CHG  1   1  -1
M  END
