1
 OpenBabel05122313063D

  5  4  0  0  0  0  0  0  0  0999 V2000
    1.0743   -0.1470   -1.1588 O   0  0  0  0  0  0  0  0  0  0  0  0
    2.4069   -0.1108   -0.2107 S   0  0  0  0  0  0  0  0  0  0  0  0
    3.2273   -1.3114   -0.4578 O   0  0  0  0  0  0  0  0  0  0  0  0
    3.0352    1.2252   -0.3231 O   0  0  0  0  0  0  0  0  0  0  0  0
    1.1909   -0.2434    1.5945 S   0  0  0  0  0  0  0  0  0  0  0  0
  1  2  1  0  0  0  0
  2  5  2  0  0  0  0
  3  2  2  0  0  0  0
  4  2  1  0  0  0  0
M  END
