1
 OpenBabel05122313063D

 35 36  0  0  0  0  0  0  0  0999 V2000
   -0.7240   -0.9330    0.4223 O   0  0  0  0  0  1  0  0  0  0  0  0
   -0.6582    1.0153   -1.2876 O   0  0  0  0  0  0  0  0  0  0  0  0
   -1.2776    0.7371   -1.9944 H   0  0  0  0  0  0  0  0  0  0  0  0
   -1.8658   -0.0768    0.5070 C   0  0  0  0  0  0  0  0  0  0  0  0
   -2.2609   -0.0197    1.9976 C   0  0  0  0  0  0  0  0  0  0  0  0
   -1.4103    0.3746    2.5872 H   0  0  0  0  0  0  0  0  0  0  0  0
   -3.1030    0.6976    2.1152 H   0  0  0  0  0  0  0  0  0  0  0  0
   -2.6623   -1.3998    2.5363 C   0  0  0  0  0  0  0  0  0  0  0  0
   -1.7671   -2.0567    2.5062 H   0  0  0  0  0  0  0  0  0  0  0  0
   -2.9611   -1.3113    3.6018 H   0  0  0  0  0  0  0  0  0  0  0  0
   -3.7821   -2.0395    1.7090 C   0  0  0  0  0  0  0  0  0  0  0  0
   -4.0129   -3.0553    2.0924 H   0  0  0  0  0  0  0  0  0  0  0  0
   -4.7147   -1.4408    1.8257 H   0  0  0  0  0  0  0  0  0  0  0  0
   -3.4005   -2.0957    0.2261 C   0  0  0  0  0  0  0  0  0  0  0  0
   -4.2324   -2.5109   -0.3794 H   0  0  0  0  0  0  0  0  0  0  0  0
   -2.5352   -2.7766    0.0845 H   0  0  0  0  0  0  0  0  0  0  0  0
   -3.0308   -0.7032   -0.2966 C   0  0  0  0  0  0  0  0  0  0  0  0
   -3.9162   -0.0388   -0.2132 H   0  0  0  0  0  0  0  0  0  0  0  0
   -2.7623   -0.7652   -1.3715 H   0  0  0  0  0  0  0  0  0  0  0  0
   -1.4184    1.3189   -0.0835 C   0  0  0  0  0  0  0  0  0  0  0  0
   -0.4265    2.0534    0.8367 C   0  0  0  0  0  0  0  0  0  0  0  0
   -0.9403    2.2664    1.7959 H   0  0  0  0  0  0  0  0  0  0  0  0
    0.4223    1.3772    1.0530 H   0  0  0  0  0  0  0  0  0  0  0  0
    0.0676    3.3731    0.2339 C   0  0  0  0  0  0  0  0  0  0  0  0
    0.6458    3.1584   -0.6900 H   0  0  0  0  0  0  0  0  0  0  0  0
    0.7678    3.8656    0.9411 H   0  0  0  0  0  0  0  0  0  0  0  0
   -1.1060    4.2999   -0.1000 C   0  0  0  0  0  0  0  0  0  0  0  0
   -1.6220    4.5915    0.8431 H   0  0  0  0  0  0  0  0  0  0  0  0
   -0.7459    5.2417   -0.5639 H   0  0  0  0  0  0  0  0  0  0  0  0
   -2.1039    3.5978   -1.0267 C   0  0  0  0  0  0  0  0  0  0  0  0
   -1.6175    3.4133   -2.0087 H   0  0  0  0  0  0  0  0  0  0  0  0
   -2.9807    4.2477   -1.2276 H   0  0  0  0  0  0  0  0  0  0  0  0
   -2.5824    2.2559   -0.4515 C   0  0  0  0  0  0  0  0  0  0  0  0
   -3.2555    1.7552   -1.1778 H   0  0  0  0  0  0  0  0  0  0  0  0
   -3.1878    2.4282    0.4648 H   0  0  0  0  0  0  0  0  0  0  0  0
  1  4  1  0  0  0  0
  2 20  1  0  0  0  0
  3  2  1  0  0  0  0
  4  5  1  0  0  0  0
  5  7  1  0  0  0  0
  5  8  1  0  0  0  0
  5  6  1  0  0  0  0
  8 10  1  0  0  0  0
  9  8  1  0  0  0  0
 11 13  1  0  0  0  0
 11 12  1  0  0  0  0
 11  8  1  0  0  0  0
 14 11  1  0  0  0  0
 15 14  1  0  0  0  0
 16 14  1  0  0  0  0
 17 18  1  0  0  0  0
 17 14  1  0  0  0  0
 17  4  1  0  0  0  0
 19 17  1  0  0  0  0
 20  4  1  0  0  0  0
 20 21  1  0  0  0  0
 21 23  1  0  0  0  0
 21 22  1  0  0  0  0
 24 21  1  0  0  0  0
 24 26  1  0  0  0  0
 25 24  1  0  0  0  0
 27 24  1  0  0  0  0
 27 28  1  0  0  0  0
 29 27  1  0  0  0  0
 30 33  1  0  0  0  0
 30 27  1  0  0  0  0
 31 30  1  0  0  0  0
 32 30  1  0  0  0  0
 33 20  1  0  0  0  0
 33 35  1  0  0  0  0
 34 33  1  0  0  0  0
M  END
