1
 OpenBabel05122313063D

 12 12  0  0  0  0  0  0  0  0999 V2000
   -0.9721    0.1769    1.5404 O   0  5  0  0  0  0  0  0  0  0  0  0
   -2.2320    0.1402    1.1731 C   0  0  0  0  0  0  0  0  0  0  0  0
   -2.6523   -0.0322   -0.1841 C   0  0  0  0  0  0  0  0  0  0  0  0
   -1.8844   -0.1405   -0.9667 H   0  0  0  0  0  0  0  0  0  0  0  0
   -4.0062   -0.0661   -0.5428 C   0  0  0  0  0  0  0  0  0  0  0  0
   -4.2961   -0.1998   -1.5957 H   0  0  0  0  0  0  0  0  0  0  0  0
   -4.9934    0.0712    0.4447 C   0  0  0  0  0  0  0  0  0  0  0  0
   -4.6250    0.2421    1.7908 C   0  0  0  0  0  0  0  0  0  0  0  0
   -5.4026    0.3492    2.5617 H   0  0  0  0  0  0  0  0  0  0  0  0
   -3.2730    0.2754    2.1443 C   0  0  0  0  0  0  0  0  0  0  0  0
   -2.9760    0.4087    3.1960 H   0  0  0  0  0  0  0  0  0  0  0  0
   -6.8443    0.0261   -0.0411 Br  0  0  0  0  0  0  0  0  0  0  0  0
  2  1  1  0  0  0  0
  2 10  1  0  0  0  0
  3  2  2  0  0  0  0
  4  3  1  0  0  0  0
  5  3  1  0  0  0  0
  5  7  2  0  0  0  0
  6  5  1  0  0  0  0
  7  8  1  0  0  0  0
  8 10  2  0  0  0  0
  8  9  1  0  0  0  0
 10 11  1  0  0  0  0
 12  7  1  0  0  0  0
M  CHG  1   1  -1
M  END
