1
 OpenBabel05122313063D

 17 17  0  0  1  0  0  0  0  0999 V2000
   -1.6477    1.5366    0.7395 O   0  0  0  0  0  1  0  0  0  0  0  0
   -2.9569    1.3292   -1.0844 O   0  0  0  0  0  0  0  0  0  0  0  0
   -4.3385   -0.5958   -0.3253 N   0  0  0  0  0  0  0  0  0  0  0  0
   -2.5967    1.0234    0.1307 C   0  0  1  0  0  3  0  0  0  0  0  0
   -3.4559   -0.0916    0.7590 C   0  0  2  0  0  0  0  0  0  0  0  0
   -2.5871   -1.2823    1.2006 C   0  0  0  0  0  0  0  0  0  0  0  0
   -2.5038   -2.1072   -0.0906 C   0  0  0  0  0  0  0  0  0  0  0  0
   -3.9196   -1.9854   -0.6675 C   0  0  0  0  0  0  0  0  0  0  0  0
   -4.0266    0.3580    1.5977 H   0  0  0  0  0  0  0  0  0  0  0  0
   -1.6012   -0.9556    1.5813 H   0  0  0  0  0  0  0  0  0  0  0  0
   -3.1068   -1.8448    2.0037 H   0  0  0  0  0  0  0  0  0  0  0  0
   -1.7543   -1.6530   -0.7742 H   0  0  0  0  0  0  0  0  0  0  0  0
   -2.2042   -3.1580    0.0827 H   0  0  0  0  0  0  0  0  0  0  0  0
   -4.6034   -2.7243   -0.1937 H   0  0  0  0  0  0  0  0  0  0  0  0
   -3.9587   -2.1412   -1.7645 H   0  0  0  0  0  0  0  0  0  0  0  0
   -5.3332   -0.5344   -0.0885 H   0  0  0  0  0  0  0  0  0  0  0  0
   -3.7147    0.6175   -1.2233 H   0  0  0  0  0  0  0  0  0  0  0  0
  2  4  1  0  0  0  0
  3 16  1  0  0  0  0
  3  5  1  0  0  0  0
  4  1  1  6  0  0  0
  4  5  1  0  0  0  0
  5  6  1  0  0  0  0
  5  9  1  1  0  0  0
  6 10  1  0  0  0  0
  6 11  1  0  0  0  0
  7 13  1  0  0  0  0
  7  6  1  0  0  0  0
  8  3  1  0  0  0  0
  8 14  1  0  0  0  0
  8  7  1  0  0  0  0
 12  7  1  0  0  0  0
 15  8  1  0  0  0  0
 17  2  1  0  0  0  0
M  END
