10
 OpenBabel05122313063D

 20 20  0  0  0  0  0  0  0  0999 V2000
   -5.2555   -0.8564   -0.2012 C   0  0  0  0  0  0  0  0  0  0  0  0
   -4.4466   -1.2889    0.8844 C   0  0  0  0  0  0  0  0  0  0  0  0
   -4.9733   -1.2752    2.1964 C   0  0  0  0  0  0  0  0  0  0  0  0
   -6.2832   -0.8559    2.4295 C   0  0  0  0  0  0  0  0  0  0  0  0
   -7.0784   -0.4259    1.3476 C   0  0  0  0  0  0  0  0  0  0  0  0
   -6.5702   -0.4170    0.0425 C   0  0  0  0  0  0  0  0  0  0  0  0
   -4.7512   -0.8825   -1.4728 O   0  0  0  0  0  0  0  0  0  0  0  0
   -4.4046    0.3873   -2.0372 C   0  0  0  0  0  0  0  0  0  0  0  0
   -3.0302    0.9029   -1.5634 C   0  0  0  0  0  0  0  0  0  0  0  0
   -2.1049    0.0109   -1.4980 O   0  5  0  0  0  0  0  0  0  0  0  0
   -2.9242    2.1221   -1.3016 O   0  0  0  0  0  0  0  0  0  0  0  0
   -3.0509   -1.6679    0.6379 C   0  0  0  0  0  0  0  0  0  0  0  0
   -2.2014   -1.7545    1.5368 O   0  0  0  0  0  0  0  0  0  0  0  0
   -4.3157   -1.6035    3.0156 H   0  0  0  0  0  0  0  0  0  0  0  0
   -6.6948   -0.8576    3.4494 H   0  0  0  0  0  0  0  0  0  0  0  0
   -8.1131   -0.0954    1.5262 H   0  0  0  0  0  0  0  0  0  0  0  0
   -7.1879   -0.0852   -0.8049 H   0  0  0  0  0  0  0  0  0  0  0  0
   -4.3611    0.2350   -3.1349 H   0  0  0  0  0  0  0  0  0  0  0  0
   -5.1703    1.1576   -1.8090 H   0  0  0  0  0  0  0  0  0  0  0  0
   -2.7780   -1.8222   -0.4318 H   0  0  0  0  0  0  0  0  0  0  0  0
  1  6  2  0  0  0  0
  1  2  1  0  0  0  0
  2  3  2  0  0  0  0
  3  4  1  0  0  0  0
  3 14  1  0  0  0  0
  4 15  1  0  0  0  0
  5 16  1  0  0  0  0
  5  4  2  0  0  0  0
  6  5  1  0  0  0  0
  7  1  1  0  0  0  0
  8 19  1  0  0  0  0
  8  9  1  0  0  0  0
  8  7  1  0  0  0  0
  9 10  1  0  0  0  0
  9 11  2  0  0  0  0
 12  2  1  0  0  0  0
 12 13  2  0  0  0  0
 17  6  1  0  0  0  0
 18  8  1  0  0  0  0
 20 12  1  0  0  0  0
M  CHG  1  10  -1
M  END
