2
 OpenBabel05122313063D

 51 54  0  0  1  0  0  0  0  0999 V2000
    1.2600    0.7503   -0.0207 P   0  0  0  0  0  0  0  0  0  0  0  0
   -0.9141   -0.9460    0.1338 O   0  0  0  0  0  1  0  0  0  0  0  0
   -2.6775    0.3824   -0.3802 N   0  0  0  0  0  0  0  0  0  0  0  0
   -0.3453    1.1275   -0.8811 C   0  0  0  0  0  0  0  0  0  0  0  0
   -0.6455    2.1877   -0.8658 H   0  0  0  0  0  0  0  0  0  0  0  0
   -0.1953    0.7842   -1.9307 H   0  0  0  0  0  0  0  0  0  0  0  0
   -1.3350    0.1475   -0.3152 C   0  0  2  0  0  3  0  0  0  0  0  0
   -3.1750    1.7130   -0.5920 C   0  0  0  0  0  0  0  0  0  0  0  0
   -3.9858    1.9859   -1.7074 C   0  0  0  0  0  0  0  0  0  0  0  0
   -4.2277    1.1740   -2.4084 H   0  0  0  0  0  0  0  0  0  0  0  0
   -4.4693    3.2860   -1.9076 C   0  0  0  0  0  0  0  0  0  0  0  0
   -5.1003    3.5021   -2.7826 H   0  0  0  0  0  0  0  0  0  0  0  0
   -4.1435    4.3111   -1.0032 C   0  0  0  0  0  0  0  0  0  0  0  0
   -4.5228    5.3308   -1.1672 H   0  0  0  0  0  0  0  0  0  0  0  0
   -3.3402    4.0307    0.1136 C   0  0  0  0  0  0  0  0  0  0  0  0
   -3.0908    4.8261    0.8320 H   0  0  0  0  0  0  0  0  0  0  0  0
   -2.8638    2.7293    0.3304 C   0  0  0  0  0  0  0  0  0  0  0  0
   -2.2483    2.4923    1.2114 H   0  0  0  0  0  0  0  0  0  0  0  0
   -3.6302   -0.6795   -0.1686 C   0  0  0  0  0  0  0  0  0  0  0  0
   -3.3850   -1.9727   -0.6700 C   0  0  0  0  0  0  0  0  0  0  0  0
   -2.4495   -2.2057   -1.1961 H   0  0  0  0  0  0  0  0  0  0  0  0
   -4.3384   -2.9761   -0.4575 C   0  0  0  0  0  0  0  0  0  0  0  0
   -4.1328   -3.9886   -0.8348 H   0  0  0  0  0  0  0  0  0  0  0  0
   -5.5295   -2.7025    0.2337 C   0  0  0  0  0  0  0  0  0  0  0  0
   -6.2708   -3.4993    0.3956 H   0  0  0  0  0  0  0  0  0  0  0  0
   -5.7678   -1.4088    0.7226 C   0  0  0  0  0  0  0  0  0  0  0  0
   -6.6954   -1.1840    1.2702 H   0  0  0  0  0  0  0  0  0  0  0  0
   -4.8192   -0.3956    0.5285 C   0  0  0  0  0  0  0  0  0  0  0  0
   -4.9972    0.6163    0.9195 H   0  0  0  0  0  0  0  0  0  0  0  0
    1.1945    1.8743    1.4441 C   0  0  0  0  0  0  0  0  0  0  0  0
    1.5067    1.3930    2.7293 C   0  0  0  0  0  0  0  0  0  0  0  0
    1.7147    0.3211    2.8679 H   0  0  0  0  0  0  0  0  0  0  0  0
    1.4679    2.2642    3.8314 C   0  0  0  0  0  0  0  0  0  0  0  0
    1.7021    1.8774    4.8347 H   0  0  0  0  0  0  0  0  0  0  0  0
    1.1179    3.6110    3.6599 C   0  0  0  0  0  0  0  0  0  0  0  0
    1.0848    4.2884    4.5270 H   0  0  0  0  0  0  0  0  0  0  0  0
    0.8064    4.0962    2.3774 C   0  0  0  0  0  0  0  0  0  0  0  0
    0.5365    5.1539    2.2355 H   0  0  0  0  0  0  0  0  0  0  0  0
    0.8468    3.2337    1.2738 C   0  0  0  0  0  0  0  0  0  0  0  0
    0.6238    3.6299    0.2706 H   0  0  0  0  0  0  0  0  0  0  0  0
    2.5221    1.5655   -1.0827 C   0  0  0  0  0  0  0  0  0  0  0  0
    3.5244    2.3813   -0.5180 C   0  0  0  0  0  0  0  0  0  0  0  0
    3.5212    2.5901    0.5622 H   0  0  0  0  0  0  0  0  0  0  0  0
    4.5207    2.9413   -1.3332 C   0  0  0  0  0  0  0  0  0  0  0  0
    5.2976    3.5774   -0.8824 H   0  0  0  0  0  0  0  0  0  0  0  0
    4.5238    2.6955   -2.7143 C   0  0  0  0  0  0  0  0  0  0  0  0
    5.3022    3.1406   -3.3525 H   0  0  0  0  0  0  0  0  0  0  0  0
    3.5350    1.8720   -3.2785 C   0  0  0  0  0  0  0  0  0  0  0  0
    3.5398    1.6632   -4.3591 H   0  0  0  0  0  0  0  0  0  0  0  0
    2.5419    1.3000   -2.4710 C   0  0  0  0  0  0  0  0  0  0  0  0
    1.8050    0.6025   -2.9033 H   0  0  0  0  0  0  0  0  0  0  0  0
  1 30  1  0  0  0  0
  3  7  1  0  0  0  0
  3 19  1  0  0  0  0
  4  5  1  0  0  0  0
  4  7  1  0  0  0  0
  4  1  1  0  0  0  0
  6  4  1  0  0  0  0
  7  2  1  6  0  0  0
  8  3  1  0  0  0  0
  8 17  1  0  0  0  0
  9  8  2  0  0  0  0
 10  9  1  0  0  0  0
 11  9  1  0  0  0  0
 11 13  2  0  0  0  0
 12 11  1  0  0  0  0
 13 15  1  0  0  0  0
 14 13  1  0  0  0  0
 15 17  2  0  0  0  0
 15 16  1  0  0  0  0
 17 18  1  0  0  0  0
 19 28  1  0  0  0  0
 20 22  1  0  0  0  0
 20 19  2  0  0  0  0
 21 20  1  0  0  0  0
 22 24  2  0  0  0  0
 23 22  1  0  0  0  0
 24 25  1  0  0  0  0
 24 26  1  0  0  0  0
 26 27  1  0  0  0  0
 28 26  2  0  0  0  0
 28 29  1  0  0  0  0
 30 31  1  0  0  0  0
 31 32  1  0  0  0  0
 31 33  2  0  0  0  0
 33 34  1  0  0  0  0
 35 33  1  0  0  0  0
 35 36  1  0  0  0  0
 37 35  2  0  0  0  0
 38 37  1  0  0  0  0
 39 30  2  0  0  0  0
 39 37  1  0  0  0  0
 40 39  1  0  0  0  0
 41 42  1  0  0  0  0
 41  1  1  0  0  0  0
 42 43  1  0  0  0  0
 44 45  1  0  0  0  0
 44 42  2  0  0  0  0
 46 44  1  0  0  0  0
 47 46  1  0  0  0  0
 48 46  2  0  0  0  0
 48 50  1  0  0  0  0
 49 48  1  0  0  0  0
 50 41  2  0  0  0  0
 51 50  1  0  0  0  0
M  END
