3
 OpenBabel05122313063D

 63 66  0  0  0  0  0  0  0  0999 V2000
    4.1960    1.9500    1.3347 N   0  0  0  0  0  0  0  0  0  0  0  0
    0.7445   -2.7452   -0.9934 C   0  0  0  0  0  0  0  0  0  0  0  0
    0.2037   -1.5628   -1.1003 O   0  5  0  0  0  0  0  0  0  0  0  0
    1.5542   -3.2587   -1.7666 O   0  0  0  0  0  0  0  0  0  0  0  0
    0.2637   -3.4784    0.2458 C   0  0  0  0  0  0  0  0  0  0  0  0
   -0.5491    1.5438    1.2893 O   0  0  0  0  0  0  0  0  0  0  0  0
    0.4105   -4.8718    0.3364 C   0  0  0  0  0  0  0  0  0  0  0  0
    0.8963   -5.3824   -0.5090 H   0  0  0  0  0  0  0  0  0  0  0  0
   -0.0534   -5.5675    1.4610 C   0  0  0  0  0  0  0  0  0  0  0  0
    0.0543   -6.6614    1.5174 H   0  0  0  0  0  0  0  0  0  0  0  0
   -0.6570   -4.8646    2.5169 C   0  0  0  0  0  0  0  0  0  0  0  0
   -1.0218   -5.4035    3.4045 H   0  0  0  0  0  0  0  0  0  0  0  0
   -0.7881   -3.4689    2.4495 C   0  0  0  0  0  0  0  0  0  0  0  0
   -1.2390   -2.9129    3.2858 H   0  0  0  0  0  0  0  0  0  0  0  0
   -0.3288   -2.7656    1.3176 C   0  0  0  0  0  0  0  0  0  0  0  0
   -0.4094   -1.2782    1.2809 C   0  0  0  0  0  0  0  0  0  0  0  0
    0.7511   -0.4949    1.4997 C   0  0  0  0  0  0  0  0  0  0  0  0
    0.6604    0.9294    1.4140 C   0  0  0  0  0  0  0  0  0  0  0  0
    1.7782    1.7504    1.4257 C   0  0  0  0  0  0  0  0  0  0  0  0
    1.6156    2.8275    1.3142 H   0  0  0  0  0  0  0  0  0  0  0  0
    3.0806    1.1810    1.4880 C   0  0  0  0  0  0  0  0  0  0  0  0
    3.1784   -0.2413    1.6918 C   0  0  0  0  0  0  0  0  0  0  0  0
    4.1613   -0.7174    1.7815 H   0  0  0  0  0  0  0  0  0  0  0  0
    2.0567   -1.0387    1.6866 C   0  0  0  0  0  0  0  0  0  0  0  0
    2.1619   -2.1287    1.7789 H   0  0  0  0  0  0  0  0  0  0  0  0
    5.5446    1.3819    1.3879 C   0  0  0  0  0  0  0  0  0  0  0  0
    5.5829    0.6211    2.1926 H   0  0  0  0  0  0  0  0  0  0  0  0
    6.2246    2.1948    1.7187 H   0  0  0  0  0  0  0  0  0  0  0  0
    6.0134    0.7969    0.0540 C   0  0  0  0  0  0  0  0  0  0  0  0
    7.0316    0.3713    0.1580 H   0  0  0  0  0  0  0  0  0  0  0  0
    6.0417    1.5739   -0.7355 H   0  0  0  0  0  0  0  0  0  0  0  0
    5.3223    0.0105   -0.3068 H   0  0  0  0  0  0  0  0  0  0  0  0
    4.0964    3.3328    0.8671 C   0  0  0  0  0  0  0  0  0  0  0  0
    3.2567    3.4004    0.1459 H   0  0  0  0  0  0  0  0  0  0  0  0
    5.0088    3.5432    0.2733 H   0  0  0  0  0  0  0  0  0  0  0  0
    3.9607    4.3533    1.9983 C   0  0  0  0  0  0  0  0  0  0  0  0
    3.9132    5.3820    1.5880 H   0  0  0  0  0  0  0  0  0  0  0  0
    4.8266    4.3013    2.6890 H   0  0  0  0  0  0  0  0  0  0  0  0
    3.0440    4.1792    2.5964 H   0  0  0  0  0  0  0  0  0  0  0  0
   -5.2219    1.5621    0.3273 N   0  0  0  0  0  0  0  0  0  0  0  0
   -1.6510   -0.6085    1.0981 C   0  0  0  0  0  0  0  0  0  0  0  0
   -1.6785    0.8189    1.0823 C   0  0  0  0  0  0  0  0  0  0  0  0
   -2.8450    1.5423    0.8512 C   0  0  0  0  0  0  0  0  0  0  0  0
   -2.7619    2.6343    0.8495 H   0  0  0  0  0  0  0  0  0  0  0  0
   -4.0689    0.8688    0.5962 C   0  0  0  0  0  0  0  0  0  0  0  0
   -4.0530   -0.5706    0.6111 C   0  0  0  0  0  0  0  0  0  0  0  0
   -4.9686   -1.1341    0.3964 H   0  0  0  0  0  0  0  0  0  0  0  0
   -2.8859   -1.2703    0.8466 C   0  0  0  0  0  3  0  0  0  0  0  0
   -2.8911   -2.3691    0.8201 H   0  0  0  0  0  0  0  0  0  0  0  0
   -6.5014    0.8885    0.1109 C   0  0  0  0  0  0  0  0  0  0  0  0
   -6.5769    0.0188    0.7942 H   0  0  0  0  0  0  0  0  0  0  0  0
   -7.2995    1.5880    0.4358 H   0  0  0  0  0  0  0  0  0  0  0  0
   -6.7316    0.4622   -1.3408 C   0  0  0  0  0  0  0  0  0  0  0  0
   -7.7238   -0.0191   -1.4533 H   0  0  0  0  0  0  0  0  0  0  0  0
   -6.6971    1.3351   -2.0235 H   0  0  0  0  0  0  0  0  0  0  0  0
   -5.9575   -0.2560   -1.6764 H   0  0  0  0  0  0  0  0  0  0  0  0
   -5.2240    3.0178    0.1959 C   0  0  0  0  0  0  0  0  0  0  0  0
   -4.2861    3.3393   -0.3010 H   0  0  0  0  0  0  0  0  0  0  0  0
   -6.0390    3.2854   -0.5078 H   0  0  0  0  0  0  0  0  0  0  0  0
   -5.4149    3.7511    1.5257 C   0  0  0  0  0  0  0  0  0  0  0  0
   -5.4280    4.8481    1.3670 H   0  0  0  0  0  0  0  0  0  0  0  0
   -6.3726    3.4646    2.0054 H   0  0  0  0  0  0  0  0  0  0  0  0
   -4.5976    3.5151    2.2356 H   0  0  0  0  0  0  0  0  0  0  0  0
  1 26  1  0  0  0  0
  1 21  1  0  0  0  0
  2  5  1  0  0  0  0
  3  2  1  0  0  0  0
  4  2  2  0  0  0  0
  5  7  2  0  0  0  0
  5 15  1  0  0  0  0
  6 18  1  0  0  0  0
  7  9  1  0  0  0  0
  8  7  1  0  0  0  0
  9 10  1  0  0  0  0
  9 11  2  0  0  0  0
 11 12  1  0  0  0  0
 13 11  1  0  0  0  0
 13 14  1  0  0  0  0
 15 13  2  0  0  0  0
 16 15  1  0  0  0  0
 16 17  1  0  0  0  0
 17 24  1  0  0  0  0
 18 19  1  0  0  0  0
 18 17  2  0  0  0  0
 19 21  2  0  0  0  0
 20 19  1  0  0  0  0
 21 22  1  0  0  0  0
 22 23  1  0  0  0  0
 24 22  2  0  0  0  0
 24 25  1  0  0  0  0
 26 28  1  0  0  0  0
 26 27  1  0  0  0  0
 29 30  1  0  0  0  0
 29 26  1  0  0  0  0
 31 29  1  0  0  0  0
 32 29  1  0  0  0  0
 33  1  1  0  0  0  0
 33 36  1  0  0  0  0
 34 33  1  0  0  0  0
 35 33  1  0  0  0  0
 36 39  1  0  0  0  0
 36 38  1  0  0  0  0
 37 36  1  0  0  0  0
 40 45  1  0  0  0  0
 41 16  2  0  0  0  0
 42 41  1  0  0  0  0
 42  6  1  0  0  0  0
 43 42  2  0  0  0  0
 44 43  1  0  0  0  0
 45 46  2  0  0  0  0
 45 43  1  0  0  0  0
 46 48  1  0  0  0  0
 47 46  1  0  0  0  0
 48 41  1  0  0  0  0
 49 48  1  0  0  0  0
 50 40  1  0  0  0  0
 50 52  1  0  0  0  0
 50 51  1  0  0  0  0
 53 50  1  0  0  0  0
 54 53  1  0  0  0  0
 55 53  1  0  0  0  0
 56 53  1  0  0  0  0
 57 40  1  0  0  0  0
 57 60  1  0  0  0  0
 58 57  1  0  0  0  0
 59 57  1  0  0  0  0
 60 62  1  0  0  0  0
 60 63  1  0  0  0  0
 61 60  1  0  0  0  0
M  CHG  1   3  -1
M  END
