3
 OpenBabel05122313063D

 18 19  0  0  0  0  0  0  0  0999 V2000
   -4.6520    1.9049   -0.6797 N   0  0  0  0  0  0  0  0  0  0  0  0
   -4.4689    2.8453   -0.3240 H   0  0  0  0  0  0  0  0  0  0  0  0
   -1.3441    1.0053   -1.7810 O   0  5  0  0  0  0  0  0  0  0  0  0
   -2.1370    2.9488   -0.9000 O   0  0  0  0  0  0  0  0  0  0  0  0
   -2.2715    1.7875   -1.3560 C   0  0  0  0  0  0  0  0  0  0  0  0
   -3.6476    1.1949   -1.3107 C   0  0  0  0  0  0  0  0  0  0  0  0
   -4.1208   -0.0748   -1.6323 C   0  0  0  0  0  0  0  0  0  0  0  0
   -3.5340   -0.8489   -2.1365 H   0  0  0  0  0  0  0  0  0  0  0  0
   -5.4640   -0.1588   -1.1377 C   0  0  0  0  0  0  0  0  0  0  0  0
   -6.4387   -1.1841   -1.0850 C   0  0  0  0  0  0  0  0  0  0  0  0
   -6.2336   -2.1640   -1.5433 H   0  0  0  0  0  0  0  0  0  0  0  0
   -7.6565   -0.9358   -0.4451 C   0  0  0  0  0  0  0  0  0  0  0  0
   -8.4196   -1.7276   -0.3979 H   0  0  0  0  0  0  0  0  0  0  0  0
   -7.9348    0.3278    0.1379 C   0  0  0  0  0  0  0  0  0  0  0  0
   -8.9066    0.4938    0.6273 H   0  0  0  0  0  0  0  0  0  0  0  0
   -6.9999    1.3681    0.0984 C   0  0  0  0  0  0  0  0  0  0  0  0
   -7.2175    2.3478    0.5500 H   0  0  0  0  0  0  0  0  0  0  0  0
   -5.7671    1.1161   -0.5319 C   0  0  0  0  0  0  0  0  0  0  0  0
  1 18  1  0  0  0  0
  1  2  1  0  0  0  0
  3  5  1  0  0  0  0
  5  6  1  0  0  0  0
  5  4  2  0  0  0  0
  6  1  1  0  0  0  0
  7  6  2  0  0  0  0
  7  9  1  0  0  0  0
  8  7  1  0  0  0  0
  9 10  2  0  0  0  0
  9 18  1  0  0  0  0
 10 12  1  0  0  0  0
 11 10  1  0  0  0  0
 12 13  1  0  0  0  0
 12 14  2  0  0  0  0
 14 15  1  0  0  0  0
 16 14  1  0  0  0  0
 16 17  1  0  0  0  0
 18 16  2  0  0  0  0
M  CHG  1   3  -1
M  END
