2
 OpenBabel05122313063D

 13 12  0  0  1  0  0  0  0  0999 V2000
    3.5664   -1.1257   -0.3419 O   0  0  0  0  0  0  0  0  0  0  0  0
    1.6602   -0.5308   -1.3656 O   0  0  0  0  0  1  0  0  0  0  0  0
    4.0290    1.1107    0.6782 N   0  0  0  0  0  0  0  0  0  0  0  0
    3.4221    1.0745    1.5141 H   0  0  0  0  0  0  0  0  0  0  0  0
    4.6704    1.9058    0.7706 H   0  0  0  0  0  0  0  0  0  0  0  0
    4.1968   -0.5298    0.2135 H   0  0  0  0  0  0  0  0  0  0  0  0
    2.7097   -0.2330   -0.7777 C   0  0  2  0  0  3  0  0  0  0  0  0
    3.1703    1.2141   -0.5131 C   0  0  1  0  0  0  0  0  0  0  0  0
    3.8364    1.4464   -1.3770 H   0  0  0  0  0  0  0  0  0  0  0  0
    2.0341    2.2301   -0.4675 C   0  0  0  0  0  0  0  0  0  0  0  0
    2.4401    3.2588   -0.4013 H   0  0  0  0  0  0  0  0  0  0  0  0
    1.3859    2.0317    0.4083 H   0  0  0  0  0  0  0  0  0  0  0  0
    1.4045    2.1535   -1.3742 H   0  0  0  0  0  0  0  0  0  0  0  0
  1  6  1  0  0  0  0
  3  5  1  0  0  0  0
  3  4  1  0  0  0  0
  7  2  1  6  0  0  0
  7  8  1  0  0  0  0
  7  1  1  0  0  0  0
  8  9  1  6  0  0  0
  8 10  1  0  0  0  0
  8  3  1  0  0  0  0
 10 11  1  0  0  0  0
 10 12  1  0  0  0  0
 13 10  1  0  0  0  0
M  END
