13
 OpenBabel05122313063D

 15 15  0  0  0  0  0  0  0  0999 V2000
    5.2492   -0.8913   -0.1811 C   0  0  0  0  0  0  0  0  0  0  0  0
    4.0615   -0.1630   -0.1670 C   0  0  0  0  0  0  0  0  0  0  0  0
    3.3839   -0.1746    0.6972 H   0  0  0  0  0  0  0  0  0  0  0  0
    3.6933    0.6205   -1.2851 C   0  0  0  0  0  0  0  0  0  0  0  0
    2.4321    1.3938   -1.2581 C   0  0  0  0  0  0  0  0  0  0  0  0
    4.5416    0.6643   -2.4360 C   0  0  0  0  0  0  0  0  0  0  0  0
    5.7418   -0.0862   -2.4219 C   0  0  0  0  0  0  0  0  0  0  0  0
    6.3875   -0.0463   -3.3108 H   0  0  0  0  0  0  0  0  0  0  0  0
    6.0938   -0.8537   -1.3125 C   0  0  0  0  0  0  0  0  0  0  0  0
    7.0307   -1.4293   -1.3226 H   0  0  0  0  0  0  0  0  0  0  0  0
    5.7977   -2.0640    1.5018 I   0  0  0  0  0  0  0  0  0  0  0  0
    2.1218    2.0892   -2.2915 O   0  5  0  0  0  0  0  0  0  0  0  0
    1.7062    1.3366   -0.1976 O   0  0  0  0  0  0  0  0  0  0  0  0
    4.2461    1.3849   -3.5209 O   0  0  0  0  0  0  0  0  0  0  0  0
    3.3649    1.8273   -3.3116 H   0  0  0  0  0  0  0  0  0  0  0  0
  1  2  1  0  0  0  0
  1 11  1  0  0  0  0
  2  3  1  0  0  0  0
  4  5  1  0  0  0  0
  4  2  2  0  0  0  0
  5 13  2  0  0  0  0
  6  7  2  0  0  0  0
  6  4  1  0  0  0  0
  7  9  1  0  0  0  0
  8  7  1  0  0  0  0
  9  1  2  0  0  0  0
 10  9  1  0  0  0  0
 12  5  1  0  0  0  0
 14 15  1  0  0  0  0
 14  6  1  0  0  0  0
M  CHG  1  12  -1
M  END
