2
 OpenBabel05122313063D

 17 16  0  0  0  0  0  0  0  0999 V2000
    1.4034   -3.8313    0.6305 O   0  5  0  0  0  0  0  0  0  0  0  0
   -0.0270   -2.1083    0.6027 O   0  0  0  0  0  0  0  0  0  0  0  0
    1.1860   -2.6230    0.6505 C   0  0  0  0  0  0  0  0  0  0  0  0
    2.1387   -1.6558    0.7226 O   0  0  0  0  0  0  0  0  0  0  0  0
    3.5631   -1.9852    0.8192 C   0  0  0  0  0  0  0  0  0  0  0  0
    4.0144   -2.8073   -0.3941 C   0  0  0  0  0  0  0  0  0  0  0  0
    3.4989   -3.7843   -0.4170 H   0  0  0  0  0  0  0  0  0  0  0  0
    5.1087   -2.9766   -0.3420 H   0  0  0  0  0  0  0  0  0  0  0  0
    3.7954   -2.2554   -1.3298 H   0  0  0  0  0  0  0  0  0  0  0  0
    3.8235   -2.7185    2.1393 C   0  0  0  0  0  0  0  0  0  0  0  0
    3.4739   -2.1041    2.9931 H   0  0  0  0  0  0  0  0  0  0  0  0
    4.9089   -2.9043    2.2663 H   0  0  0  0  0  0  0  0  0  0  0  0
    3.2901   -3.6872    2.1513 H   0  0  0  0  0  0  0  0  0  0  0  0
    4.2275   -0.6053    0.8090 C   0  0  0  0  0  0  0  0  0  0  0  0
    3.9932   -0.0778   -0.1371 H   0  0  0  0  0  0  0  0  0  0  0  0
    5.3273   -0.7088    0.8962 H   0  0  0  0  0  0  0  0  0  0  0  0
    3.8555    0.0113    1.6507 H   0  0  0  0  0  0  0  0  0  0  0  0
  1  3  1  0  0  0  0
  2  3  2  0  0  0  0
  3  4  1  0  0  0  0
  4  5  1  0  0  0  0
  5 10  1  0  0  0  0
  6  8  1  0  0  0  0
  6  5  1  0  0  0  0
  7  6  1  0  0  0  0
  9  6  1  0  0  0  0
 10 13  1  0  0  0  0
 10 12  1  0  0  0  0
 10 11  1  0  0  0  0
 14  5  1  0  0  0  0
 14 16  1  0  0  0  0
 14 17  1  0  0  0  0
 15 14  1  0  0  0  0
M  CHG  1   1  -1
M  END
