1
 OpenBabel05122313063D

 28 29  0  0  0  0  0  0  0  0999 V2000
   -0.0045   -0.2924   -1.3873 O   0  5  0  0  0  0  0  0  0  0  0  0
    1.9266   -0.2878   -2.4784 O   0  0  0  0  0  0  0  0  0  0  0  0
    1.1868   -0.5120    1.0452 O   0  0  0  0  0  0  0  0  0  0  0  0
    1.4123   -1.3792    1.4333 H   0  0  0  0  0  0  0  0  0  0  0  0
    1.3068   -0.2877   -1.4204 C   0  0  0  0  0  0  0  0  0  0  0  0
    2.0961   -0.3225   -0.0667 C   0  0  0  0  0  0  0  0  0  0  0  0
    2.8560    0.9911    0.1626 C   0  0  0  0  0  0  0  0  0  0  0  0
    3.1891    1.3474    1.4862 C   0  0  0  0  0  0  0  0  0  0  0  0
    2.8686    0.6947    2.3103 H   0  0  0  0  0  0  0  0  0  0  0  0
    3.9103    2.5182    1.7558 C   0  0  0  0  0  0  0  0  0  0  0  0
    4.1688    2.7737    2.7950 H   0  0  0  0  0  0  0  0  0  0  0  0
    4.3044    3.3609    0.7036 C   0  0  0  0  0  0  0  0  0  0  0  0
    4.8715    4.2808    0.9115 H   0  0  0  0  0  0  0  0  0  0  0  0
    3.9836    3.0094   -0.6164 C   0  0  0  0  0  0  0  0  0  0  0  0
    4.3010    3.6539   -1.4504 H   0  0  0  0  0  0  0  0  0  0  0  0
    3.2732    1.8290   -0.8895 C   0  0  0  0  0  0  0  0  0  0  0  0
    3.0535    1.5390   -1.9262 H   0  0  0  0  0  0  0  0  0  0  0  0
    3.0235   -1.5423   -0.1332 C   0  0  0  0  0  0  0  0  0  0  0  0
    2.4302   -2.8244   -0.1758 C   0  0  0  0  0  0  0  0  0  0  0  0
    1.3336   -2.9215   -0.2199 H   0  0  0  0  0  0  0  0  0  0  0  0
    3.2242   -3.9786   -0.1994 C   0  0  0  0  0  0  0  0  0  0  0  0
    2.7478   -4.9700   -0.2396 H   0  0  0  0  0  0  0  0  0  0  0  0
    4.6240   -3.8676   -0.1922 C   0  0  0  0  0  0  0  0  0  0  0  0
    5.2509   -4.7714   -0.2159 H   0  0  0  0  0  0  0  0  0  0  0  0
    5.2184   -2.5972   -0.1665 C   0  0  0  0  0  0  0  0  0  0  0  0
    6.3146   -2.5028   -0.1690 H   0  0  0  0  0  0  0  0  0  0  0  0
    4.4245   -1.4398   -0.1364 C   0  0  0  0  0  0  0  0  0  0  0  0
    4.8972   -0.4479   -0.1175 H   0  0  0  0  0  0  0  0  0  0  0  0
  2  5  2  0  0  0  0
  3  4  1  0  0  0  0
  5  1  1  0  0  0  0
  5  6  1  0  0  0  0
  6  7  1  0  0  0  0
  6  3  1  0  0  0  0
  7  8  1  0  0  0  0
  8 10  2  0  0  0  0
  8  9  1  0  0  0  0
 10 11  1  0  0  0  0
 12 13  1  0  0  0  0
 12 10  1  0  0  0  0
 14 12  2  0  0  0  0
 15 14  1  0  0  0  0
 16 14  1  0  0  0  0
 16  7  2  0  0  0  0
 17 16  1  0  0  0  0
 18  6  1  0  0  0  0
 19 18  2  0  0  0  0
 20 19  1  0  0  0  0
 21 23  2  0  0  0  0
 21 19  1  0  0  0  0
 22 21  1  0  0  0  0
 23 25  1  0  0  0  0
 24 23  1  0  0  0  0
 25 27  2  0  0  0  0
 26 25  1  0  0  0  0
 27 18  1  0  0  0  0
 27 28  1  0  0  0  0
M  CHG  1   1  -1
M  END
