12
 OpenBabel05122313063D

 20 20  0  0  1  0  0  0  0  0999 V2000
   -3.4033    2.3233    0.7860 O   0  0  0  0  0  0  0  0  0  0  0  0
   -5.0414   -1.0128    0.3492 C   0  0  0  0  0  0  0  0  0  0  0  0
   -6.3916   -0.7534    0.6802 C   0  0  0  0  0  0  0  0  0  0  0  0
   -6.7872    0.7437    1.4909 Cl  0  0  0  0  0  0  0  0  0  0  0  0
   -7.3961   -1.6717    0.3504 C   0  0  0  0  0  0  0  0  0  0  0  0
   -7.0601   -2.8552   -0.3256 C   0  0  0  0  0  0  0  0  0  0  0  0
   -5.7226   -3.1148   -0.6611 C   0  0  0  0  0  0  0  0  0  0  0  0
   -4.7115   -2.2035   -0.3219 C   0  0  0  0  0  0  0  0  0  0  0  0
   -4.1198   -0.0753    0.7163 O   0  0  0  0  0  0  0  0  0  0  0  0
   -2.9155    0.0725   -0.0592 C   0  0  1  0  0  0  0  0  0  0  0  0
   -2.5020    1.5466    0.2091 C   0  0  1  0  0  3  0  0  0  0  0  0
   -1.4081    1.9868   -0.1444 O   0  0  0  0  0  1  0  0  0  0  0  0
   -1.9562   -0.8235    0.2774 O   0  0  0  0  0  0  0  0  0  0  0  0
   -1.3240   -0.8747   -0.5815 H   0  0  0  0  0  0  0  0  0  0  0  0
   -4.1714    1.7250    1.0020 H   0  0  0  0  0  0  0  0  0  0  0  0
   -8.4370   -1.4429    0.6189 H   0  0  0  0  0  0  0  0  0  0  0  0
   -7.8504   -3.5741   -0.5864 H   0  0  0  0  0  0  0  0  0  0  0  0
   -5.4548   -4.0448   -1.1842 H   0  0  0  0  0  0  0  0  0  0  0  0
   -3.6530   -2.4068   -0.5351 H   0  0  0  0  0  0  0  0  0  0  0  0
   -3.1884    0.0226   -1.1497 H   0  0  0  0  0  0  0  0  0  0  0  0
  1 15  1  0  0  0  0
  2  3  1  0  0  0  0
  2  9  1  0  0  0  0
  3  4  1  0  0  0  0
  5 16  1  0  0  0  0
  5  3  2  0  0  0  0
  6  5  1  0  0  0  0
  7  6  2  0  0  0  0
  7  8  1  0  0  0  0
  8  2  2  0  0  0  0
 10 20  1  6  0  0  0
 10 11  1  0  0  0  0
 10 13  1  0  0  0  0
 10  9  1  0  0  0  0
 11 12  1  6  0  0  0
 11  1  1  0  0  0  0
 14 13  1  0  0  0  0
 17  6  1  0  0  0  0
 18  7  1  0  0  0  0
 19  8  1  0  0  0  0
M  END
