1
 OpenBabel05122313063D

 38 37  0  0  1  0  0  0  0  0999 V2000
    1.4234    0.2673   -0.1730 O   0  0  0  0  0  1  0  0  0  0  0  0
    2.3580    0.4698   -0.9932 C   0  0  1  0  0  3  0  0  0  0  0  0
    2.4554    1.6625   -1.6204 N   0  0  0  0  0  0  0  0  0  0  0  0
    3.3993   -0.5932   -1.2469 C   0  0  0  0  0  0  0  0  0  0  0  0
    1.4560    2.6919   -1.3152 C   0  0  0  0  0  0  0  0  0  0  0  0
    3.5156    2.0107   -2.5709 C   0  0  0  0  0  0  0  0  0  0  0  0
    4.7461   -0.5819    0.0100 P   0  0  0  0  0  4  0  0  0  0  0  0
    2.9170   -1.5845   -1.1297 H   0  0  0  0  0  0  0  0  0  0  0  0
    3.8761   -0.5467   -2.2416 H   0  0  0  0  0  0  0  0  0  0  0  0
    1.8928    3.5598   -0.1345 C   0  0  0  0  0  0  0  0  0  0  0  0
    1.3117    3.3012   -2.2306 H   0  0  0  0  0  0  0  0  0  0  0  0
    0.5013    2.1767   -1.0983 H   0  0  0  0  0  0  0  0  0  0  0  0
    3.1354    1.6855   -4.0149 C   0  0  0  0  0  0  0  0  0  0  0  0
    3.7126    3.0964   -2.4529 H   0  0  0  0  0  0  0  0  0  0  0  0
    4.4529    1.5127   -2.2642 H   0  0  0  0  0  0  0  0  0  0  0  0
    6.2047   -1.8178   -0.3216 S   0  0  0  0  0  1  0  0  0  0  0  0
    5.0901    1.0288   -0.0023 O   0  0  0  0  0  0  0  0  0  0  0  0
    3.9955   -0.6786    1.4573 O   0  0  0  0  0  0  0  0  0  0  0  0
    1.1494    4.3571    0.0631 H   0  0  0  0  0  0  0  0  0  0  0  0
    2.8686    4.0499   -0.3301 H   0  0  0  0  0  0  0  0  0  0  0  0
    1.9956    2.9409    0.7785 H   0  0  0  0  0  0  0  0  0  0  0  0
    3.9479    1.9834   -4.7070 H   0  0  0  0  0  0  0  0  0  0  0  0
    2.2124    2.2187   -4.3195 H   0  0  0  0  0  0  0  0  0  0  0  0
    2.9481    0.6006   -4.1432 H   0  0  0  0  0  0  0  0  0  0  0  0
    6.1210    1.5283    0.8751 C   0  0  0  0  0  0  0  0  0  0  0  0
    3.7941   -1.9397    2.1449 C   0  0  0  0  0  0  0  0  0  0  0  0
    6.3617    2.9856    0.5378 C   0  0  0  0  0  0  0  0  0  0  0  0
    5.7829    1.4043    1.9267 H   0  0  0  0  0  0  0  0  0  0  0  0
    7.0390    0.9156    0.7373 H   0  0  0  0  0  0  0  0  0  0  0  0
    3.6703   -1.6536    3.6261 C   0  0  0  0  0  0  0  0  0  0  0  0
    2.8702   -2.4065    1.7454 H   0  0  0  0  0  0  0  0  0  0  0  0
    4.6553   -2.6056    1.9200 H   0  0  0  0  0  0  0  0  0  0  0  0
    7.1342    3.4103    1.2092 H   0  0  0  0  0  0  0  0  0  0  0  0
    5.4318    3.5769    0.6608 H   0  0  0  0  0  0  0  0  0  0  0  0
    6.7115    3.0975   -0.5079 H   0  0  0  0  0  0  0  0  0  0  0  0
    3.4952   -2.6004    4.1752 H   0  0  0  0  0  0  0  0  0  0  0  0
    2.8120   -0.9811    3.8185 H   0  0  0  0  0  0  0  0  0  0  0  0
    4.5944   -1.1851    4.0209 H   0  0  0  0  0  0  0  0  0  0  0  0
  2  1  1  1  0  0  0
  3  5  1  0  0  0  0
  3  2  1  0  0  0  0
  4  8  1  0  0  0  0
  4  2  1  0  0  0  0
  4  7  1  0  0  0  0
  5 12  1  0  0  0  0
  5 10  1  0  0  0  0
  6 14  1  0  0  0  0
  6 15  1  0  0  0  0
  6  3  1  0  0  0  0
  7 18  1  0  0  0  0
  9  4  1  0  0  0  0
 10 19  1  0  0  0  0
 10 21  1  0  0  0  0
 11  5  1  0  0  0  0
 13  6  1  0  0  0  0
 16  7  1  0  0  0  0
 17  7  1  0  0  0  0
 17 25  1  0  0  0  0
 18 26  1  0  0  0  0
 20 10  1  0  0  0  0
 22 13  1  0  0  0  0
 23 13  1  0  0  0  0
 24 13  1  0  0  0  0
 25 28  1  0  0  0  0
 26 30  1  0  0  0  0
 27 34  1  0  0  0  0
 27 25  1  0  0  0  0
 27 33  1  0  0  0  0
 29 25  1  0  0  0  0
 30 37  1  0  0  0  0
 30 38  1  0  0  0  0
 30 36  1  0  0  0  0
 31 26  1  0  0  0  0
 32 26  1  0  0  0  0
 35 27  1  0  0  0  0
M  END
