6
 OpenBabel05122313063D

  7  6  0  0  0  0  0  0  0  0999 V2000
    1.7213    1.3604    0.1512 S   0  0  0  0  0  0  0  0  0  0  0  0
    3.6557   -0.5571    0.2204 F   0  0  0  0  0  0  0  0  0  0  0  0
    4.0309    1.0355   -1.2274 F   0  0  0  0  0  0  0  0  0  0  0  0
    4.3098    1.4108    0.9095 F   0  0  0  0  0  0  0  0  0  0  0  0
    1.3837    0.9626    1.5859 O   0  0  0  0  0  0  0  0  0  0  0  0
    1.1345    0.3074   -0.8877 O   0  0  0  0  0  0  0  0  0  0  0  0
    3.5554    0.7699    0.0021 C   0  0  0  0  0  0  0  0  0  0  0  0
  1  5  1  0  0  0  0
  3  7  1  0  0  0  0
  6  1  1  0  0  0  0
  7  1  1  0  0  0  0
  7  2  1  0  0  0  0
  7  4  1  0  0  0  0
M  END
