1
 OpenBabel05122313063D

  8  7  0  0  0  0  0  0  0  0999 V2000
    1.1072    0.1651    1.4881 O   0  0  0  0  0  1  0  0  0  0  0  0
    1.7265    0.0145   -1.3741 S   0  0  0  0  0  1  0  0  0  0  0  0
    2.4293    0.5435    1.1951 C   0  0  0  0  0  0  0  0  0  0  0  0
    3.0596    0.3208    2.0909 H   0  0  0  0  0  0  0  0  0  0  0  0
    2.5027    1.6498    1.0141 H   0  0  0  0  0  0  0  0  0  0  0  0
    2.9643   -0.1845   -0.0274 C   0  0  0  0  0  0  0  0  0  0  0  0
    3.1110   -1.2648    0.1969 H   0  0  0  0  0  0  0  0  0  0  0  0
    3.9335    0.2321   -0.3721 H   0  0  0  0  0  0  0  0  0  0  0  0
  2  6  1  0  0  0  0
  3  1  1  0  0  0  0
  3  4  1  0  0  0  0
  5  3  1  0  0  0  0
  6  7  1  0  0  0  0
  6  3  1  0  0  0  0
  8  6  1  0  0  0  0
M  END
