3
 OpenBabel05122313063D

 47 48  0  0  1  0  0  0  0  0999 V2000
    0.0830    1.8063   -0.6718 P   0  0  0  0  0  1  0  0  0  0  0  0
   -2.3217   -0.2769   -0.9771 P   0  0  2  0  0  0  0  0  0  0  0  0
    0.7775   -2.0129    0.0126 O   0  0  0  0  0  1  0  0  0  0  0  0
   -0.6401   -0.8126   -1.5627 C   0  0  2  0  0  3  0  0  0  0  0  0
   -0.0850   -0.8928   -2.9709 C   0  0  0  0  0  0  0  0  0  0  0  0
    1.4489   -1.0073   -2.9390 C   0  0  0  0  0  0  0  0  0  0  0  0
   -0.4991    0.3510   -3.7746 C   0  0  0  0  0  0  0  0  0  0  0  0
   -0.6956   -2.1559   -3.6216 C   0  0  0  0  0  0  0  0  0  0  0  0
   -1.6418    1.2974   -0.1006 C   0  0  2  0  0  0  0  0  0  0  0  0
   -2.6584    2.4432    0.1281 C   0  0  0  0  0  0  0  0  0  0  0  0
   -2.0497    3.5300    1.0352 C   0  0  0  0  0  0  0  0  0  0  0  0
   -3.0157    3.0477   -1.2416 C   0  0  0  0  0  0  0  0  0  0  0  0
   -0.3962   -1.5669   -0.3920 C   0  0  2  0  0  3  0  0  0  0  0  0
    1.8751   -0.1172   -2.4207 H   0  0  0  0  0  0  0  0  0  0  0  0
    1.7801   -1.9222   -2.4114 H   0  0  0  0  0  0  0  0  0  0  0  0
    1.8692   -1.0186   -3.9662 H   0  0  0  0  0  0  0  0  0  0  0  0
   -1.6023    0.4725   -3.7731 H   0  0  0  0  0  0  0  0  0  0  0  0
   -0.0553    1.2676   -3.3326 H   0  0  0  0  0  0  0  0  0  0  0  0
   -0.1630    0.2648   -4.8284 H   0  0  0  0  0  0  0  0  0  0  0  0
   -0.4030   -3.0681   -3.0641 H   0  0  0  0  0  0  0  0  0  0  0  0
   -1.8029   -2.0978   -3.6284 H   0  0  0  0  0  0  0  0  0  0  0  0
   -0.3465   -2.2574   -4.6708 H   0  0  0  0  0  0  0  0  0  0  0  0
   -1.7677    3.1052    2.0212 H   0  0  0  0  0  0  0  0  0  0  0  0
   -2.7825    4.3458    1.2060 H   0  0  0  0  0  0  0  0  0  0  0  0
   -3.4676    2.2824   -1.9074 H   0  0  0  0  0  0  0  0  0  0  0  0
   -2.1069    3.4433   -1.7417 H   0  0  0  0  0  0  0  0  0  0  0  0
   -3.7421    3.8797   -1.1342 H   0  0  0  0  0  0  0  0  0  0  0  0
   -0.8960    0.3501    1.3755 P   0  0  0  0  0  2  0  0  0  0  0  0
   -1.5637   -1.2463    0.5070 C   0  0  1  0  0  0  0  0  0  0  0  0
   -3.9252    1.8867    0.8046 C   0  0  0  0  0  0  0  0  0  0  0  0
   -1.1374    3.9664    0.5806 H   0  0  0  0  0  0  0  0  0  0  0  0
   -2.2683   -2.3369    1.3167 C   0  0  0  0  0  0  0  0  0  0  0  0
   -4.4143    1.1134    0.1760 H   0  0  0  0  0  0  0  0  0  0  0  0
   -3.6797    1.4279    1.7843 H   0  0  0  0  0  0  0  0  0  0  0  0
   -4.6635    2.6966    0.9797 H   0  0  0  0  0  0  0  0  0  0  0  0
   -1.3091   -2.8422    2.4135 C   0  0  0  0  0  0  0  0  0  0  0  0
   -3.5379   -1.7605    1.9631 C   0  0  0  0  0  0  0  0  0  0  0  0
   -2.6417   -3.4913    0.3672 C   0  0  0  0  0  0  0  0  0  0  0  0
   -1.0295   -2.0139    3.0977 H   0  0  0  0  0  0  0  0  0  0  0  0
   -0.3782   -3.2484    1.9713 H   0  0  0  0  0  0  0  0  0  0  0  0
   -1.7922   -3.6365    3.0194 H   0  0  0  0  0  0  0  0  0  0  0  0
   -4.2441   -1.3904    1.1917 H   0  0  0  0  0  0  0  0  0  0  0  0
   -3.2873   -0.9119    2.6324 H   0  0  0  0  0  0  0  0  0  0  0  0
   -4.0587   -2.5328    2.5657 H   0  0  0  0  0  0  0  0  0  0  0  0
   -1.7374   -3.9391   -0.0938 H   0  0  0  0  0  0  0  0  0  0  0  0
   -3.3004   -3.1323   -0.4507 H   0  0  0  0  0  0  0  0  0  0  0  0
   -3.1795   -4.2938    0.9134 H   0  0  0  0  0  0  0  0  0  0  0  0
  1  9  1  0  0  0  0
  2  9  1  0  0  0  0
  2 29  1  0  0  0  0
  4  2  1  0  0  0  0
  4 13  1  0  0  0  0
  5  6  1  0  0  0  0
  5  4  1  0  0  0  0
  6 14  1  0  0  0  0
  6 15  1  0  0  0  0
  7 17  1  0  0  0  0
  7 18  1  0  0  0  0
  7  5  1  0  0  0  0
  8 20  1  0  0  0  0
  8  5  1  0  0  0  0
  9 10  1  0  0  0  0
  9 28  1  0  0  0  0
 10 30  1  0  0  0  0
 10 11  1  0  0  0  0
 11 24  1  0  0  0  0
 11 23  1  0  0  0  0
 12 27  1  0  0  0  0
 12 10  1  0  0  0  0
 13  3  1  0  0  0  0
 13 29  1  0  0  0  0
 16  6  1  0  0  0  0
 19  7  1  0  0  0  0
 21  8  1  0  0  0  0
 22  8  1  0  0  0  0
 25 12  1  0  0  0  0
 26 12  1  0  0  0  0
 29 32  1  0  0  0  0
 29 28  1  0  0  0  0
 30 35  1  0  0  0  0
 30 34  1  0  0  0  0
 31 11  1  0  0  0  0
 32 37  1  0  0  0  0
 32 36  1  0  0  0  0
 33 30  1  0  0  0  0
 36 41  1  0  0  0  0
 36 39  1  0  0  0  0
 37 44  1  0  0  0  0
 37 43  1  0  0  0  0
 38 47  1  0  0  0  0
 38 32  1  0  0  0  0
 40 36  1  0  0  0  0
 42 37  1  0  0  0  0
 45 38  1  0  0  0  0
 46 38  1  0  0  0  0
M  END
