9
 OpenBabel05122313063D

 14 13  0  0  1  0  0  0  0  0999 V2000
   -2.8210    0.5338   -0.2560 C   0  0  2  0  0  0  0  0  0  0  0  0
   -2.8134    0.1676   -1.3098 H   0  0  0  0  0  0  0  0  0  0  0  0
   -2.0951    1.9127   -0.2626 C   0  0  0  0  0  0  0  0  0  0  0  0
   -4.2528    0.6364    0.2545 C   0  0  0  0  0  0  0  0  0  0  0  0
   -4.7596    1.4792   -0.2503 H   0  0  0  0  0  0  0  0  0  0  0  0
   -4.2325    0.8876    1.3379 H   0  0  0  0  0  0  0  0  0  0  0  0
   -5.0900   -0.6119    0.0840 C   0  0  0  0  0  0  0  0  0  0  0  0
   -2.0388   -0.3785    0.5533 O   0  0  0  0  0  0  0  0  0  0  0  0
   -0.7897    1.8299   -0.1695 O   0  5  0  0  0  0  0  0  0  0  0  0
   -2.7529    2.9383   -0.3759 O   0  0  0  0  0  0  0  0  0  0  0  0
   -4.3243   -1.7545    0.1930 O   0  0  0  0  0  0  0  0  0  0  0  0
   -6.2834   -0.6653   -0.1050 O   0  0  0  0  0  0  0  0  0  0  0  0
   -2.4812   -1.2559    0.4939 H   0  0  0  0  0  0  0  0  0  0  0  0
   -4.9375   -2.5129    0.0738 H   0  0  0  0  0  0  0  0  0  0  0  0
  1  2  1  6  0  0  0
  1  4  1  0  0  0  0
  1  8  1  0  0  0  0
  3  1  1  0  0  0  0
  3  9  1  0  0  0  0
  4  6  1  0  0  0  0
  5  4  1  0  0  0  0
  7 11  1  0  0  0  0
  7  4  1  0  0  0  0
 10  3  2  0  0  0  0
 12  7  2  0  0  0  0
 13  8  1  0  0  0  0
 14 11  1  0  0  0  0
M  CHG  1   9  -1
M  END
