2
 OpenBabel05122313063D

 12 12  0  0  0  0  0  0  0  0999 V2000
    6.5879    0.1085   -0.2360 Cl  0  0  0  0  0  0  0  0  0  0  0  0
    0.7459    0.2636    0.6271 O   0  5  0  0  0  0  0  0  0  0  0  0
    4.3319    0.6389    1.2135 C   0  0  0  0  0  0  0  0  0  0  0  0
    5.0142    0.9884    2.0013 H   0  0  0  0  0  0  0  0  0  0  0  0
    2.0672    0.2224    0.3875 C   0  0  0  0  0  0  0  0  0  0  0  0
    2.9461    0.6714    1.4027 C   0  0  0  0  0  0  0  0  0  0  0  0
    2.5146    1.0473    2.3419 H   0  0  0  0  0  0  0  0  0  0  0  0
    3.9982   -0.2949   -1.0151 C   0  0  0  0  0  0  0  0  0  0  0  0
    4.4228   -0.6717   -1.9565 H   0  0  0  0  0  0  0  0  0  0  0  0
    2.6127   -0.2624   -0.8234 C   0  0  0  0  0  0  0  0  0  0  0  0
    1.9269   -0.6045   -1.6125 H   0  0  0  0  0  0  0  0  0  0  0  0
    4.8561    0.1545    0.0032 C   0  0  0  0  0  0  0  0  0  0  0  0
  1 12  1  0  0  0  0
  3  6  1  0  0  0  0
  3  4  1  0  0  0  0
  5  2  1  0  0  0  0
  5  6  2  0  0  0  0
  6  7  1  0  0  0  0
  8 10  2  0  0  0  0
  8 12  1  0  0  0  0
  9  8  1  0  0  0  0
 10  5  1  0  0  0  0
 11 10  1  0  0  0  0
 12  3  2  0  0  0  0
M  CHG  1   2  -1
M  END
