19
 OpenBabel05122313063D

 22 23  0  0  0  0  0  0  0  0999 V2000
    1.0779    0.2444    1.0225 C   0  0  0  0  0  0  0  0  0  0  0  0
    2.5039    0.0574    0.5743 C   0  0  0  0  0  0  0  0  0  0  0  0
    3.4731    0.9908    0.9100 C   0  0  0  0  0  0  0  0  0  0  0  0
    3.2021    1.8484    1.5455 H   0  0  0  0  0  0  0  0  0  0  0  0
    4.8103    0.8625    0.4347 C   0  0  0  0  0  0  0  0  0  0  0  0
    5.8271    1.8074    0.7591 C   0  0  0  0  0  0  0  0  0  0  0  0
    5.5683    2.6597    1.4070 H   0  0  0  0  0  0  0  0  0  0  0  0
    7.1179    1.6592    0.2721 C   0  0  0  0  0  0  0  0  0  0  0  0
    7.8935    2.3958    0.5315 H   0  0  0  0  0  0  0  0  0  0  0  0
    7.4449    0.5563   -0.5625 C   0  0  0  0  0  0  0  0  0  0  0  0
    8.4714    0.4481   -0.9449 H   0  0  0  0  0  0  0  0  0  0  0  0
    6.4780   -0.3822   -0.8945 C   0  0  0  0  0  0  0  0  0  0  0  0
    6.7288   -1.2392   -1.5390 H   0  0  0  0  0  0  0  0  0  0  0  0
    5.1426   -0.2604   -0.4107 C   0  0  0  0  0  0  0  0  0  0  0  0
    4.1277   -1.2109   -0.7268 C   0  0  0  0  0  0  0  0  0  0  0  0
    4.3739   -2.0760   -1.3620 H   0  0  0  0  0  0  0  0  0  0  0  0
    2.8400   -1.0801   -0.2330 C   0  0  0  0  0  0  0  0  0  0  0  0
    1.7630   -2.1190   -0.4609 C   0  0  0  0  0  0  0  0  0  0  0  0
    0.2342    0.0922    0.0303 O   0  5  0  0  0  0  0  0  0  0  0  0
    0.7977    0.5712    2.1888 O   0  0  0  0  0  0  0  0  0  0  0  0
    1.5402   -2.5137   -1.6340 O   0  5  0  0  0  0  0  0  0  0  0  0
    1.1497   -2.4741    0.6073 O   0  0  0  0  0  0  0  0  0  0  0  0
  1 20  2  0  0  0  0
  2  3  1  0  0  0  0
  2  1  1  0  0  0  0
  3  4  1  0  0  0  0
  5  6  1  0  0  0  0
  5  3  2  0  0  0  0
  6  7  1  0  0  0  0
  8  9  1  0  0  0  0
  8  6  2  0  0  0  0
 10  8  1  0  0  0  0
 11 10  1  0  0  0  0
 12 10  2  0  0  0  0
 12 14  1  0  0  0  0
 13 12  1  0  0  0  0
 14  5  1  0  0  0  0
 15 14  2  0  0  0  0
 15 17  1  0  0  0  0
 16 15  1  0  0  0  0
 17  2  2  0  0  0  0
 18 17  1  0  0  0  0
 18 22  2  0  0  0  0
 19  1  1  0  0  0  0
 21 18  1  0  0  0  0
M  CHG  2  19  -1  21  -1
M  END
