1
 OpenBabel05122313063D

 14 13  0  0  0  0  0  0  0  0999 V2000
    0.0000    0.9573   -1.3898 O   0  5  0  0  0  0  0  0  0  0  0  0
   -0.0012    5.1197   -0.0975 O   0  0  0  0  0  0  0  0  0  0  0  0
   -0.0002    3.1334   -2.3314 C   0  0  0  0  0  0  0  0  0  0  0  0
   -0.0002    2.2349   -1.1197 C   0  0  0  0  0  0  0  0  0  0  0  0
   -0.0004    2.7254    0.1861 C   0  0  0  0  0  0  0  0  0  0  0  0
   -0.0007    4.1135    0.6294 C   0  0  0  0  0  0  0  0  0  0  0  0
   -0.0007    4.2929    2.1526 C   0  0  0  0  0  0  0  0  0  0  0  0
   -0.8892    2.9092   -2.9568 H   0  0  0  0  0  0  0  0  0  0  0  0
   -0.0009    4.1948   -2.0229 H   0  0  0  0  0  0  0  0  0  0  0  0
    0.8896    2.9101   -2.9560 H   0  0  0  0  0  0  0  0  0  0  0  0
   -0.0002    1.9478    0.9687 H   0  0  0  0  0  0  0  0  0  0  0  0
   -0.8922    3.8126    2.6084 H   0  0  0  0  0  0  0  0  0  0  0  0
    0.8896    3.8108    2.6089 H   0  0  0  0  0  0  0  0  0  0  0  0
    0.0001    5.3718    2.3932 H   0  0  0  0  0  0  0  0  0  0  0  0
  1  4  1  0  0  0  0
  2  6  2  0  0  0  0
  3  9  1  0  0  0  0
  3  4  1  0  0  0  0
  4  5  2  0  0  0  0
  5  6  1  0  0  0  0
  5 11  1  0  0  0  0
  6  7  1  0  0  0  0
  7 14  1  0  0  0  0
  7 12  1  0  0  0  0
  7 13  1  0  0  0  0
  8  3  1  0  0  0  0
 10  3  1  0  0  0  0
M  CHG  1   1  -1
M  END
