2
 OpenBabel05122313063D

 20 20  0  0  0  0  0  0  0  0999 V2000
   -1.8588    0.5068    0.6237 S   0  0  1  0  0  3  0  0  0  0  0  0
   -1.6659   -0.8541   -0.1136 O   0  0  0  0  0  1  0  0  0  0  0  0
   -3.6000    0.8815    0.3195 C   0  0  0  0  0  0  0  0  0  0  0  0
   -4.4161   -0.0842   -0.2844 C   0  0  0  0  0  0  0  0  0  0  0  0
   -3.9835   -1.0586   -0.5571 H   0  0  0  0  0  0  0  0  0  0  0  0
   -5.7564    0.2322   -0.5371 C   0  0  0  0  0  0  0  0  0  0  0  0
   -6.4055   -0.5204   -1.0119 H   0  0  0  0  0  0  0  0  0  0  0  0
   -6.2907    1.4958   -0.2025 C   0  0  0  0  0  0  0  0  0  0  0  0
   -5.4366    2.4470    0.3933 C   0  0  0  0  0  0  0  0  0  0  0  0
   -5.8315    3.4417    0.6523 H   0  0  0  0  0  0  0  0  0  0  0  0
   -4.0890    2.1540    0.6462 C   0  0  0  0  0  0  0  0  0  0  0  0
   -3.4287    2.9152    1.0912 H   0  0  0  0  0  0  0  0  0  0  0  0
   -7.7295    1.8236   -0.5081 C   0  0  0  0  0  0  0  0  0  0  0  0
   -8.0607    2.7440    0.0098 H   0  0  0  0  0  0  0  0  0  0  0  0
   -8.4048    0.9960   -0.2114 H   0  0  0  0  0  0  0  0  0  0  0  0
   -7.8753    1.9819   -1.5978 H   0  0  0  0  0  0  0  0  0  0  0  0
   -1.9821   -0.0148    2.3695 C   0  0  0  0  0  0  0  0  0  0  0  0
   -2.7704   -0.7856    2.4467 H   0  0  0  0  0  0  0  0  0  0  0  0
   -2.2056    0.8694    2.9969 H   0  0  0  0  0  0  0  0  0  0  0  0
   -0.9886   -0.4429    2.5963 H   0  0  0  0  0  0  0  0  0  0  0  0
  1  2  1  6  0  0  0
  1 17  1  0  0  0  0
  3  1  1  0  0  0  0
  3 11  1  0  0  0  0
  4  3  2  0  0  0  0
  5  4  1  0  0  0  0
  6  4  1  0  0  0  0
  6  8  2  0  0  0  0
  7  6  1  0  0  0  0
  8  9  1  0  0  0  0
  9 11  2  0  0  0  0
  9 10  1  0  0  0  0
 11 12  1  0  0  0  0
 13 15  1  0  0  0  0
 13  8  1  0  0  0  0
 13 14  1  0  0  0  0
 16 13  1  0  0  0  0
 17 18  1  0  0  0  0
 17 20  1  0  0  0  0
 17 19  1  0  0  0  0
M  END
