1
 OpenBabel05122313063D

 16 15  0  0  0  0  0  0  0  0999 V2000
   -1.0691   -0.9673   -1.7396 O   0  5  0  0  0  0  0  0  0  0  0  0
   -1.7551    1.0790   -0.9724 N   0  0  0  0  0  0  0  0  0  0  0  0
   -1.7339    0.1053   -1.8340 C   0  0  0  0  0  3  0  0  0  0  0  0
   -2.6022    2.2862   -1.0661 C   0  0  0  0  0  0  0  0  0  0  0  0
   -2.8821    2.6138   -2.5411 C   0  0  0  0  0  0  0  0  0  0  0  0
   -1.9340    2.7943   -3.0855 H   0  0  0  0  0  0  0  0  0  0  0  0
   -3.5154    3.5196   -2.6200 H   0  0  0  0  0  0  0  0  0  0  0  0
   -3.4061    1.7711   -3.0352 H   0  0  0  0  0  0  0  0  0  0  0  0
   -1.8460    3.4435   -0.3984 C   0  0  0  0  0  0  0  0  0  0  0  0
   -1.6120    3.1978    0.6552 H   0  0  0  0  0  0  0  0  0  0  0  0
   -2.4637    4.3630   -0.4198 H   0  0  0  0  0  0  0  0  0  0  0  0
   -0.8974    3.6479   -0.9319 H   0  0  0  0  0  0  0  0  0  0  0  0
   -3.9158    2.0016   -0.3158 C   0  0  0  0  0  0  0  0  0  0  0  0
   -4.4560    1.1555   -0.7857 H   0  0  0  0  0  0  0  0  0  0  0  0
   -4.5736    2.8936   -0.3357 H   0  0  0  0  0  0  0  0  0  0  0  0
   -3.7133    1.7398    0.7416 H   0  0  0  0  0  0  0  0  0  0  0  0
  3  1  1  0  0  0  0
  3  2  2  0  0  0  0
  4  2  1  0  0  0  0
  4  9  1  0  0  0  0
  4 13  1  0  0  0  0
  5  4  1  0  0  0  0
  6  5  1  0  0  0  0
  7  5  1  0  0  0  0
  8  5  1  0  0  0  0
  9 10  1  0  0  0  0
 11  9  1  0  0  0  0
 12  9  1  0  0  0  0
 13 16  1  0  0  0  0
 14 13  1  0  0  0  0
 15 13  1  0  0  0  0
M  CHG  1   1  -1
M  END
