1
 OpenBabel05122313063D

 12 12  0  0  0  0  0  0  0  0999 V2000
   -1.5671    1.3729   -0.1159 O   0  5  0  0  0  0  0  0  0  0  0  0
   -2.9156   -0.4535   -0.1144 O   0  0  0  0  0  0  0  0  0  0  0  0
   -5.1501    1.1172   -0.3727 N   0  0  0  0  0  0  0  0  0  0  0  0
   -2.7191    0.7945   -0.1676 C   0  0  0  0  0  0  0  0  0  0  0  0
   -3.8935    1.6799   -0.3024 C   0  0  0  0  0  0  0  0  0  0  0  0
   -4.0522    3.0682   -0.3828 C   0  0  0  0  0  0  0  0  0  0  0  0
   -5.4452    3.3272   -0.5041 C   0  0  0  0  0  0  0  0  0  0  0  0
   -6.1017    2.0909   -0.4954 C   0  0  0  0  0  0  0  0  0  0  0  0
   -5.2663    0.1030   -0.3367 H   0  0  0  0  0  0  0  0  0  0  0  0
   -3.2300    3.7906   -0.3537 H   0  0  0  0  0  0  0  0  0  0  0  0
   -5.9314    4.3060   -0.5897 H   0  0  0  0  0  0  0  0  0  0  0  0
   -7.1674    1.8468   -0.5686 H   0  0  0  0  0  0  0  0  0  0  0  0
  3  9  1  0  0  0  0
  3  5  1  0  0  0  0
  4  1  1  0  0  0  0
  4  2  2  0  0  0  0
  5  4  1  0  0  0  0
  6 10  1  0  0  0  0
  6  5  2  0  0  0  0
  7  8  2  0  0  0  0
  7  6  1  0  0  0  0
  8  3  1  0  0  0  0
 11  7  1  0  0  0  0
 12  8  1  0  0  0  0
M  CHG  1   1  -1
M  END
