1
 OpenBabel05122313063D

 46 47  0  0  0  0  0  0  0  0999 V2000
   -0.6489    0.3471   -0.4089 O   0  5  0  0  0  0  0  0  0  0  0  0
   -1.9909    0.3233   -0.3171 C   0  0  0  0  0  0  0  0  0  0  0  0
   -2.7241    1.5122   -0.0025 C   0  0  0  0  0  0  0  0  0  0  0  0
   -4.1241    1.4123    0.0738 C   0  0  0  0  0  0  0  0  0  0  0  0
   -4.7110    2.3091    0.3146 H   0  0  0  0  0  0  0  0  0  0  0  0
   -4.8205    0.2115   -0.1431 C   0  0  0  0  0  0  0  0  0  0  0  0
   -4.0700   -0.9338   -0.4491 C   0  0  0  0  0  0  0  0  0  0  0  0
   -4.6088   -1.8766   -0.6148 H   0  0  0  0  0  0  0  0  0  0  0  0
   -2.6682   -0.9124   -0.5447 C   0  0  0  0  0  0  0  0  0  0  0  0
   -6.3269    0.1680   -0.0674 C   0  0  0  0  0  0  0  0  0  0  0  0
   -6.7047   -0.8732   -0.0516 H   0  0  0  0  0  0  0  0  0  0  0  0
   -6.7931    0.6759   -0.9394 H   0  0  0  0  0  0  0  0  0  0  0  0
   -6.7063    0.6813    0.8403 H   0  0  0  0  0  0  0  0  0  0  0  0
   -1.8731   -2.1805   -0.9048 C   0  0  0  0  0  0  0  0  0  0  0  0
   -1.2103   -1.9761   -2.2888 C   0  0  0  0  0  0  0  0  0  0  0  0
   -1.9824   -1.6657   -3.0201 H   0  0  0  0  0  0  0  0  0  0  0  0
   -0.7644   -2.9200   -2.6634 H   0  0  0  0  0  0  0  0  0  0  0  0
   -0.4190   -1.2064   -2.2612 H   0  0  0  0  0  0  0  0  0  0  0  0
   -2.7903   -3.4234   -1.0162 C   0  0  0  0  0  0  0  0  0  0  0  0
   -3.3303   -3.6236   -0.0702 H   0  0  0  0  0  0  0  0  0  0  0  0
   -2.1703   -4.3133   -1.2409 H   0  0  0  0  0  0  0  0  0  0  0  0
   -3.5320   -3.3098   -1.8327 H   0  0  0  0  0  0  0  0  0  0  0  0
   -1.1804   -2.2751    1.5574 C   0  0  0  0  0  0  0  0  0  0  0  0
   -2.1095   -1.7351    1.7957 H   0  0  0  0  0  0  0  0  0  0  0  0
   -0.3383   -2.7036    2.5925 C   0  0  0  0  0  0  0  0  0  0  0  0
   -0.6135   -2.4958    3.6383 H   0  0  0  0  0  0  0  0  0  0  0  0
    0.8491   -3.3933    2.3008 C   0  0  0  0  0  0  0  0  0  0  0  0
    1.5100   -3.7349    3.1122 H   0  0  0  0  0  0  0  0  0  0  0  0
    1.1839   -3.6408    0.9623 C   0  0  0  0  0  0  0  0  0  0  0  0
    2.1121   -4.1803    0.7162 H   0  0  0  0  0  0  0  0  0  0  0  0
    0.3371   -3.2113   -0.0720 C   0  0  0  0  0  0  0  0  0  0  0  0
    0.6138   -3.4275   -1.1130 H   0  0  0  0  0  0  0  0  0  0  0  0
   -0.8609   -2.5226    0.2054 C   0  0  0  0  0  0  0  0  0  0  0  0
   -2.0192    2.8621    0.2444 C   0  0  0  0  0  0  0  0  0  0  0  0
   -3.0198    3.9982    0.5331 C   0  0  0  0  0  0  0  0  0  0  0  0
   -3.7135    4.1683   -0.3147 H   0  0  0  0  0  0  0  0  0  0  0  0
   -2.4610    4.9412    0.7005 H   0  0  0  0  0  0  0  0  0  0  0  0
   -3.6233    3.8046    1.4427 H   0  0  0  0  0  0  0  0  0  0  0  0
   -1.2239    3.2720   -1.0171 C   0  0  0  0  0  0  0  0  0  0  0  0
   -0.4737    2.5131   -1.2952 H   0  0  0  0  0  0  0  0  0  0  0  0
   -0.6943    4.2321   -0.8420 H   0  0  0  0  0  0  0  0  0  0  0  0
   -1.9132    3.4127   -1.8743 H   0  0  0  0  0  0  0  0  0  0  0  0
   -1.0988    2.7501    1.4814 C   0  0  0  0  0  0  0  0  0  0  0  0
   -1.7025    2.5661    2.3934 H   0  0  0  0  0  0  0  0  0  0  0  0
   -0.5263    3.6894    1.6292 H   0  0  0  0  0  0  0  0  0  0  0  0
   -0.3695    1.9275    1.3920 H   0  0  0  0  0  0  0  0  0  0  0  0
  1  2  1  0  0  0  0
  2  3  1  0  0  0  0
  3  4  2  0  0  0  0
  3 34  1  0  0  0  0
  4  5  1  0  0  0  0
  6 10  1  0  0  0  0
  6  4  1  0  0  0  0
  7  6  2  0  0  0  0
  8  7  1  0  0  0  0
  9  7  1  0  0  0  0
  9  2  2  0  0  0  0
 10 11  1  0  0  0  0
 10 13  1  0  0  0  0
 12 10  1  0  0  0  0
 14  9  1  0  0  0  0
 14 33  1  0  0  0  0
 15 18  1  0  0  0  0
 15 14  1  0  0  0  0
 16 15  1  0  0  0  0
 17 15  1  0  0  0  0
 19 14  1  0  0  0  0
 19 20  1  0  0  0  0
 21 19  1  0  0  0  0
 22 19  1  0  0  0  0
 23 24  1  0  0  0  0
 23 25  1  0  0  0  0
 25 26  1  0  0  0  0
 27 25  2  0  0  0  0
 27 28  1  0  0  0  0
 29 27  1  0  0  0  0
 30 29  1  0  0  0  0
 31 33  1  0  0  0  0
 31 29  2  0  0  0  0
 32 31  1  0  0  0  0
 33 23  2  0  0  0  0
 34 35  1  0  0  0  0
 34 43  1  0  0  0  0
 35 37  1  0  0  0  0
 35 38  1  0  0  0  0
 36 35  1  0  0  0  0
 39 41  1  0  0  0  0
 39 34  1  0  0  0  0
 40 39  1  0  0  0  0
 42 39  1  0  0  0  0
 43 45  1  0  0  0  0
 43 44  1  0  0  0  0
 46 43  1  0  0  0  0
M  CHG  1   1  -1
M  END
