2
 OpenBabel05122313063D

 29 30  0  0  0  0  0  0  0  0999 V2000
   -1.8281    2.5709    0.4848 O   0  5  0  0  0  0  0  0  0  0  0  0
   -0.3912    1.0135   -0.2727 O   0  0  0  0  0  0  0  0  0  0  0  0
    4.9392   -4.0587    0.7431 O   0  0  0  0  0  0  0  0  0  0  0  0
    5.8577   -4.1282    0.3016 H   0  0  0  0  0  0  0  0  0  0  0  0
    7.0744   -3.5008   -0.5328 O   0  0  0  0  0  0  0  0  0  0  0  0
    2.1801    1.5248    0.2938 N   0  0  0  0  0  2  0  0  0  0  0  0
    3.2805    1.1744   -0.2253 N   0  0  0  0  0  2  0  0  0  0  0  0
   -0.6858    2.2302    0.1344 C   0  0  0  0  0  0  0  0  0  0  0  0
    0.4400    3.2264    0.1053 C   0  0  0  0  0  0  0  0  0  0  0  0
    1.8174    2.8694    0.0962 C   0  0  0  0  0  0  0  0  0  0  0  0
    2.7989    3.8838    0.0046 C   0  0  0  0  0  0  0  0  0  0  0  0
    3.8529    3.5714    0.0108 H   0  0  0  0  0  0  0  0  0  0  0  0
    2.4279    5.2290   -0.0624 C   0  0  0  0  0  0  0  0  0  0  0  0
    3.2031    6.0084   -0.1253 H   0  0  0  0  0  0  0  0  0  0  0  0
    1.0675    5.5863   -0.0338 C   0  0  0  0  0  0  0  0  0  0  0  0
    0.7715    6.6453   -0.0725 H   0  0  0  0  0  0  0  0  0  0  0  0
    0.0887    4.5885    0.0519 C   0  0  0  0  0  0  0  0  0  0  0  0
   -0.9826    4.8355    0.0754 H   0  0  0  0  0  0  0  0  0  0  0  0
    3.6573   -0.1548    0.0517 C   0  0  0  0  0  0  0  0  0  0  0  0
    4.8982   -0.5757   -0.4405 C   0  0  0  0  0  0  0  0  0  0  0  0
    5.5120    0.1426   -1.0066 H   0  0  0  0  0  0  0  0  0  0  0  0
    5.3546   -1.8910   -0.2140 C   0  0  0  0  0  0  0  0  0  0  0  0
    4.5344   -2.8149    0.5207 C   0  0  0  0  0  0  0  0  0  0  0  0
    3.2722   -2.3804    1.0058 C   0  0  0  0  0  0  0  0  0  0  0  0
    2.6542   -3.1022    1.5596 H   0  0  0  0  0  0  0  0  0  0  0  0
    2.8475   -1.0800    0.7760 C   0  0  0  0  0  0  0  0  0  0  0  0
    1.8728   -0.7166    1.1340 H   0  0  0  0  0  0  0  0  0  0  0  0
    6.6404   -2.3487   -0.7104 C   0  0  0  0  0  0  0  0  0  0  0  0
    7.2564   -1.6032   -1.2824 H   0  0  0  0  0  0  0  0  0  0  0  0
  2  8  2  0  0  0  0
  4  3  1  0  0  0  0
  7 19  1  0  0  0  0
  7  6  1  0  0  0  0
  8  1  1  0  0  0  0
  9  8  1  0  0  0  0
 10  9  1  0  0  0  0
 10  6  1  0  0  0  0
 11 12  1  0  0  0  0
 11 10  2  0  0  0  0
 13 15  2  0  0  0  0
 13 11  1  0  0  0  0
 14 13  1  0  0  0  0
 15 17  1  0  0  0  0
 16 15  1  0  0  0  0
 17 18  1  0  0  0  0
 17  9  2  0  0  0  0
 19 26  1  0  0  0  0
 20 22  1  0  0  0  0
 20 19  2  0  0  0  0
 21 20  1  0  0  0  0
 22 23  2  0  0  0  0
 23  3  1  0  0  0  0
 23 24  1  0  0  0  0
 24 25  1  0  0  0  0
 26 24  2  0  0  0  0
 26 27  1  0  0  0  0
 28  5  2  0  0  0  0
 28 22  1  0  0  0  0
 29 28  1  0  0  0  0
M  CHG  1   1  -1
M  END
