1
 OpenBabel05122313063D

 12 12  0  0  1  0  0  0  0  0999 V2000
    1.5367    1.3541   -1.4340 O   0  0  0  0  0  1  0  0  0  0  0  0
    4.0915   -2.0123    0.4995 C   0  0  0  0  0  0  0  0  0  0  0  0
    3.6955   -2.3645   -0.8700 C   0  0  0  0  0  0  0  0  0  0  0  0
    3.2770   -1.2457   -1.5220 C   0  0  0  0  0  0  0  0  0  0  0  0
    3.3806   -0.0609   -0.5782 C   0  0  2  0  0  0  0  0  0  0  0  0
    3.9100   -0.6767    0.6940 C   0  0  0  0  0  0  0  0  0  0  0  0
    2.0613    0.6220   -0.4133 C   0  0  0  0  0  2  0  0  0  0  0  0
    4.4734   -2.7281    1.2416 H   0  0  0  0  0  0  0  0  0  0  0  0
    3.7290   -3.3806   -1.2884 H   0  0  0  0  0  0  0  0  0  0  0  0
    2.8905   -1.1640   -2.5456 H   0  0  0  0  0  0  0  0  0  0  0  0
    4.1160    0.6768   -0.9905 H   0  0  0  0  0  0  0  0  0  0  0  0
    4.1012   -0.1002    1.6085 H   0  0  0  0  0  0  0  0  0  0  0  0
  1  7  1  0  0  0  0
  2  6  2  0  0  0  0
  2  8  1  0  0  0  0
  3  2  1  0  0  0  0
  4  3  2  0  0  0  0
  4  5  1  0  0  0  0
  5 11  1  6  0  0  0
  5  7  1  0  0  0  0
  5  6  1  0  0  0  0
  6 12  1  0  0  0  0
  9  3  1  0  0  0  0
 10  4  1  0  0  0  0
M  END
