1
 OpenBabel05122313063D

 68 72  0  0  0  0  0  0  0  0999 V2000
    0.1058   -0.6510    0.3532 O   0  5  0  0  0  0  0  0  0  0  0  0
    0.0270    0.6850    0.1926 C   0  0  0  0  0  0  0  0  0  0  0  0
   -1.2089    1.3241    0.5075 C   0  0  0  0  0  0  0  0  0  0  0  0
   -1.2827    2.7319    0.3983 C   0  0  0  0  0  0  0  0  0  0  0  0
   -0.1148    3.4071   -0.0197 C   0  0  0  0  0  0  0  0  0  0  0  0
    1.1127    2.8047   -0.3452 C   0  0  0  0  0  0  0  0  0  0  0  0
    1.1798    1.3860   -0.2535 C   0  0  0  0  0  0  0  0  0  0  0  0
   -2.3288    0.4085    0.8803 C   0  0  0  0  0  0  0  0  0  0  0  0
   -2.5035   -0.0128    2.1934 C   0  0  0  0  0  0  0  0  0  0  0  0
   -3.5553   -0.8949    2.5481 C   0  0  0  0  0  0  0  0  0  0  0  0
   -4.4170   -1.3828    1.5798 C   0  0  0  0  0  0  0  0  0  0  0  0
   -4.2568   -1.0078    0.2148 C   0  0  0  0  0  0  0  0  0  0  0  0
   -5.1088   -1.5127   -0.8124 C   0  0  0  0  0  0  0  0  0  0  0  0
   -4.9475   -1.1235   -2.1343 C   0  0  0  0  0  0  0  0  0  0  0  0
   -3.9231   -0.2029   -2.4851 C   0  0  0  0  0  0  0  0  0  0  0  0
   -3.0708    0.2995   -1.5119 C   0  0  0  0  0  0  0  0  0  0  0  0
   -3.2022   -0.0904   -0.1449 C   0  0  0  0  0  0  0  0  0  0  0  0
   -2.5262    3.6273    0.6508 C   0  0  0  0  0  0  0  0  0  0  0  0
   -3.7424    2.9341    1.2923 C   0  0  0  0  0  0  0  0  0  0  0  0
   -2.9791    4.2038   -0.7129 C   0  0  0  0  0  0  0  0  0  0  0  0
   -2.1356    4.7894    1.5976 C   0  0  0  0  0  0  0  0  0  0  0  0
    2.2941    3.7118   -0.7840 C   0  0  0  0  0  0  0  0  0  0  0  0
    3.6146    3.3264   -0.0800 C   0  0  0  0  0  0  0  0  0  0  0  0
    2.4796    3.6249   -2.3172 C   0  0  0  0  0  0  0  0  0  0  0  0
    2.0259    5.1939   -0.4389 C   0  0  0  0  0  0  0  0  0  0  0  0
    2.3757    0.5527   -0.5887 C   0  0  0  0  0  0  0  0  0  0  0  0
    2.6572    0.2288   -1.9139 C   0  0  0  0  0  0  0  0  0  0  0  0
    3.7876   -0.5582   -2.2599 C   0  0  0  0  0  0  0  0  0  0  0  0
    4.6277   -1.0415   -1.2697 C   0  0  0  0  0  0  0  0  0  0  0  0
    4.3649   -0.7639    0.1032 C   0  0  0  0  0  0  0  0  0  0  0  0
    5.1982   -1.2723    1.1418 C   0  0  0  0  0  0  0  0  0  0  0  0
    4.9169   -1.0095    2.4729 C   0  0  0  0  0  0  0  0  0  0  0  0
    3.7899   -0.2179    2.8194 C   0  0  0  0  0  0  0  0  0  0  0  0
    2.9638    0.2981    1.8328 C   0  0  0  0  0  0  0  0  0  0  0  0
    3.2198    0.0390    0.4555 C   0  0  0  0  0  0  0  0  0  0  0  0
   -0.1782    4.4961   -0.0990 H   0  0  0  0  0  0  0  0  0  0  0  0
   -1.8118    0.3522    2.9672 H   0  0  0  0  0  0  0  0  0  0  0  0
   -3.6703   -1.2047    3.5973 H   0  0  0  0  0  0  0  0  0  0  0  0
   -5.2254   -2.0805    1.8471 H   0  0  0  0  0  0  0  0  0  0  0  0
   -5.9049   -2.2207   -0.5332 H   0  0  0  0  0  0  0  0  0  0  0  0
   -5.6139   -1.5236   -2.9133 H   0  0  0  0  0  0  0  0  0  0  0  0
   -3.8027    0.1065   -3.5344 H   0  0  0  0  0  0  0  0  0  0  0  0
   -2.2738    1.0081   -1.7821 H   0  0  0  0  0  0  0  0  0  0  0  0
   -4.1691    2.1391    0.6556 H   0  0  0  0  0  0  0  0  0  0  0  0
   -4.5350    3.6941    1.4493 H   0  0  0  0  0  0  0  0  0  0  0  0
   -3.5010    2.4906    2.2758 H   0  0  0  0  0  0  0  0  0  0  0  0
   -2.1685    4.7710   -1.2121 H   0  0  0  0  0  0  0  0  0  0  0  0
   -3.8408    4.8891   -0.5737 H   0  0  0  0  0  0  0  0  0  0  0  0
   -3.2976    3.3908   -1.3962 H   0  0  0  0  0  0  0  0  0  0  0  0
   -1.7725    4.3997    2.5701 H   0  0  0  0  0  0  0  0  0  0  0  0
   -3.0220    5.4263    1.7940 H   0  0  0  0  0  0  0  0  0  0  0  0
   -1.3470    5.4446    1.1799 H   0  0  0  0  0  0  0  0  0  0  0  0
    4.0022    2.3465   -0.4075 H   0  0  0  0  0  0  0  0  0  0  0  0
    3.4898    3.2920    1.0210 H   0  0  0  0  0  0  0  0  0  0  0  0
    4.3907    4.0839   -0.3123 H   0  0  0  0  0  0  0  0  0  0  0  0
    3.2595    4.3425   -2.6470 H   0  0  0  0  0  0  0  0  0  0  0  0
    1.5372    3.8759   -2.8452 H   0  0  0  0  0  0  0  0  0  0  0  0
    2.7978    2.6153   -2.6337 H   0  0  0  0  0  0  0  0  0  0  0  0
    2.9203    5.7930   -0.7012 H   0  0  0  0  0  0  0  0  0  0  0  0
    1.8277    5.3380    0.6424 H   0  0  0  0  0  0  0  0  0  0  0  0
    1.1759    5.6195   -1.0086 H   0  0  0  0  0  0  0  0  0  0  0  0
    1.9844    0.5898   -2.7060 H   0  0  0  0  0  0  0  0  0  0  0  0
    3.9885   -0.7832   -3.3185 H   0  0  0  0  0  0  0  0  0  0  0  0
    5.5055   -1.6541   -1.5277 H   0  0  0  0  0  0  0  0  0  0  0  0
    6.0668   -1.8899    0.8649 H   0  0  0  0  0  0  0  0  0  0  0  0
    5.5633   -1.4166    3.2651 H   0  0  0  0  0  0  0  0  0  0  0  0
    3.5700   -0.0171    3.8789 H   0  0  0  0  0  0  0  0  0  0  0  0
    2.0904    0.9095    2.1021 H   0  0  0  0  0  0  0  0  0  0  0  0
  2  1  1  0  0  0  0
  2  3  1  0  0  0  0
  3  8  1  0  0  0  0
  4  3  2  0  0  0  0
  4 18  1  0  0  0  0
  5  4  1  0  0  0  0
  6  7  1  0  0  0  0
  6  5  2  0  0  0  0
  7  2  2  0  0  0  0
  8  9  1  0  0  0  0
  9 10  2  0  0  0  0
  9 37  1  0  0  0  0
 10 38  1  0  0  0  0
 11 39  1  0  0  0  0
 11 10  1  0  0  0  0
 12 11  2  0  0  0  0
 13 40  1  0  0  0  0
 13 12  1  0  0  0  0
 14 13  2  0  0  0  0
 15 14  1  0  0  0  0
 15 16  2  0  0  0  0
 16 17  1  0  0  0  0
 17 12  1  0  0  0  0
 17  8  2  0  0  0  0
 18 19  1  0  0  0  0
 18 21  1  0  0  0  0
 19 45  1  0  0  0  0
 19 46  1  0  0  0  0
 20 48  1  0  0  0  0
 20 18  1  0  0  0  0
 21 51  1  0  0  0  0
 21 50  1  0  0  0  0
 22 25  1  0  0  0  0
 22  6  1  0  0  0  0
 22 23  1  0  0  0  0
 23 54  1  0  0  0  0
 24 22  1  0  0  0  0
 25 60  1  0  0  0  0
 26  7  1  0  0  0  0
 26 35  1  0  0  0  0
 27 26  2  0  0  0  0
 28 27  1  0  0  0  0
 28 29  2  0  0  0  0
 29 30  1  0  0  0  0
 30 35  2  0  0  0  0
 30 31  1  0  0  0  0
 31 32  2  0  0  0  0
 32 33  1  0  0  0  0
 32 66  1  0  0  0  0
 33 67  1  0  0  0  0
 34 68  1  0  0  0  0
 34 33  2  0  0  0  0
 35 34  1  0  0  0  0
 36  5  1  0  0  0  0
 41 14  1  0  0  0  0
 42 15  1  0  0  0  0
 43 16  1  0  0  0  0
 44 19  1  0  0  0  0
 47 20  1  0  0  0  0
 49 20  1  0  0  0  0
 52 21  1  0  0  0  0
 53 23  1  0  0  0  0
 55 23  1  0  0  0  0
 56 24  1  0  0  0  0
 57 24  1  0  0  0  0
 58 24  1  0  0  0  0
 59 25  1  0  0  0  0
 61 25  1  0  0  0  0
 62 27  1  0  0  0  0
 63 28  1  0  0  0  0
 64 29  1  0  0  0  0
 65 31  1  0  0  0  0
M  CHG  1   1  -1
M  END
