1
 OpenBabel05122313063D

 12 12  0  0  0  0  0  0  0  0999 V2000
   -1.3876    0.3296   -0.4696 O   0  5  0  0  0  0  0  0  0  0  0  0
   -2.6339    0.3808   -0.2133 C   0  0  0  0  0  0  0  0  0  0  0  0
   -3.6094    1.4289   -0.1519 C   0  0  0  0  0  0  0  0  0  0  0  0
   -3.4987    2.7222   -0.3629 O   0  0  0  0  0  0  0  0  0  0  0  0
   -4.7224    0.5070    0.2020 C   0  0  0  0  0  0  0  0  0  0  0  0
   -5.9185    0.6185    0.4340 O   0  0  0  0  0  0  0  0  0  0  0  0
   -3.6927   -0.6154    0.1252 C   0  0  0  0  0  0  0  0  0  0  0  0
   -3.7178   -1.8544    0.2482 O   0  0  0  0  0  0  0  0  0  0  0  0
   -4.7010    3.5137   -0.2054 C   0  0  0  0  0  0  0  0  0  0  0  0
   -4.5194    4.2504    0.6015 H   0  0  0  0  0  0  0  0  0  0  0  0
   -5.5665    2.8698    0.0445 H   0  0  0  0  0  0  0  0  0  0  0  0
   -4.8769    4.0527   -1.1565 H   0  0  0  0  0  0  0  0  0  0  0  0
  1  2  1  0  0  0  0
  2  3  2  0  0  0  0
  2  7  1  0  0  0  0
  3  5  1  0  0  0  0
  4  9  1  0  0  0  0
  4  3  1  0  0  0  0
  5  6  2  0  0  0  0
  7  5  1  0  0  0  0
  7  8  2  0  0  0  0
  9 11  1  0  0  0  0
  9 10  1  0  0  0  0
 12  9  1  0  0  0  0
M  CHG  1   1  -1
M  END
