3
 OpenBabel05122313063D

 14 14  0  0  0  0  0  0  0  0999 V2000
    4.1870    1.9543   -1.5997 F   0  0  0  0  0  0  0  0  0  0  0  0
    5.0051   -1.9574    0.9447 F   0  0  0  0  0  0  0  0  0  0  0  0
    2.2353    0.0041   -0.8966 O   0  5  0  0  0  0  0  0  0  0  0  0
    2.7661   -0.1318    1.3102 O   0  0  0  0  0  0  0  0  0  0  0  0
    3.0609   -0.0520    0.1140 C   0  0  0  0  0  0  0  0  0  0  0  0
    4.5142   -0.0072   -0.3081 C   0  0  0  0  0  0  0  0  0  0  0  0
    5.0230    1.0071   -1.1413 C   0  0  0  0  0  0  0  0  0  0  0  0
    6.3760    1.0862   -1.4943 C   0  0  0  0  0  0  0  0  0  0  0  0
    6.7110    1.9093   -2.1406 H   0  0  0  0  0  0  0  0  0  0  0  0
    7.2606    0.1121   -1.0096 C   0  0  0  0  0  0  0  0  0  0  0  0
    8.3254    0.1580   -1.2819 H   0  0  0  0  0  0  0  0  0  0  0  0
    6.7986   -0.9202   -0.1801 C   0  0  0  0  0  0  0  0  0  0  0  0
    7.4672   -1.7005    0.2088 H   0  0  0  0  0  0  0  0  0  0  0  0
    5.4411   -0.9579    0.1605 C   0  0  0  0  0  0  0  0  0  0  0  0
  1  7  1  0  0  0  0
  3  5  1  0  0  0  0
  5  4  2  0  0  0  0
  6  5  1  0  0  0  0
  6 14  1  0  0  0  0
  7  6  2  0  0  0  0
  8  7  1  0  0  0  0
  8 10  2  0  0  0  0
  9  8  1  0  0  0  0
 10 12  1  0  0  0  0
 11 10  1  0  0  0  0
 12 14  2  0  0  0  0
 12 13  1  0  0  0  0
 14  2  1  0  0  0  0
M  CHG  1   3  -1
M  END
