4
 OpenBabel05122313063D

 29 31  0  0  1  0  0  0  0  0999 V2000
    3.9665   -2.1863   -0.4655 O   0  0  0  0  0  0  0  0  0  0  0  0
    2.5349   -3.0848    1.0185 O   0  0  0  0  0  0  0  0  0  0  0  0
    2.2883    0.1742    0.1428 O   0  5  0  0  0  0  0  0  0  0  0  0
    1.1932    0.3746   -1.8300 O   0  0  0  0  0  0  0  0  0  0  0  0
    5.3798   -0.9681    0.9482 N   0  0  0  0  0  0  0  0  0  0  0  0
    4.7423    0.0033   -1.1042 N   0  0  0  0  0  0  0  0  0  0  0  0
    5.4510    0.4438    1.0406 C   0  0  0  0  0  0  0  0  0  0  0  0
    5.7886    1.2355    2.1368 C   0  0  0  0  0  0  0  0  0  0  0  0
    6.0876    0.7752    3.0902 H   0  0  0  0  0  0  0  0  0  0  0  0
    5.7219    2.6389    1.9908 C   0  0  0  0  0  0  0  0  0  0  0  0
    5.9910    3.2856    2.8389 H   0  0  0  0  0  0  0  0  0  0  0  0
    5.3186    3.2108    0.7745 C   0  0  0  0  0  0  0  0  0  0  0  0
    5.2717    4.3060    0.6769 H   0  0  0  0  0  0  0  0  0  0  0  0
    4.9678    2.4070   -0.3307 C   0  0  0  0  0  0  0  0  0  0  0  0
    4.6258    2.8609   -1.2721 H   0  0  0  0  0  0  0  0  0  0  0  0
    5.0443    1.0182   -0.1870 C   0  0  0  0  0  0  0  0  0  0  0  0
    5.0852   -1.2814   -0.4725 C   0  0  2  0  0  0  0  0  0  0  0  0
    6.2372   -1.9687   -1.1895 C   0  0  0  0  0  0  0  0  0  0  0  0
    6.4946   -2.9191   -0.6829 H   0  0  0  0  0  0  0  0  0  0  0  0
    7.1165   -1.2977   -1.1742 H   0  0  0  0  0  0  0  0  0  0  0  0
    5.9614   -2.1740   -2.2424 H   0  0  0  0  0  0  0  0  0  0  0  0
    3.5487    0.0840   -1.9209 C   0  0  0  0  0  0  0  0  0  0  0  0
    3.4700   -0.8136   -2.5652 H   0  0  0  0  0  0  0  0  0  0  0  0
    3.6146    0.9512   -2.6097 H   0  0  0  0  0  0  0  0  0  0  0  0
    2.2336    0.2121   -1.1192 C   0  0  0  0  0  0  0  0  0  0  0  0
    4.4105   -1.6710    1.7817 C   0  0  0  0  0  0  0  0  0  0  0  0
    3.7954   -0.9716    2.3858 H   0  0  0  0  0  0  0  0  0  0  0  0
    4.8661   -2.4203    2.4661 H   0  0  0  0  0  0  0  0  0  0  0  0
    3.4989   -2.3885    0.7966 C   0  0  0  0  0  0  0  0  0  0  0  0
  1 29  1  0  0  0  0
  4 25  2  0  0  0  0
  5  7  1  0  0  0  0
  5 26  1  0  0  0  0
  6 17  1  0  0  0  0
  6 16  1  0  0  0  0
  7  8  1  0  0  0  0
  8  9  1  0  0  0  0
 10  8  2  0  0  0  0
 10 11  1  0  0  0  0
 12 10  1  0  0  0  0
 13 12  1  0  0  0  0
 14 16  1  0  0  0  0
 14 12  2  0  0  0  0
 15 14  1  0  0  0  0
 16  7  2  0  0  0  0
 17 18  1  6  0  0  0
 17  1  1  0  0  0  0
 17  5  1  0  0  0  0
 18 20  1  0  0  0  0
 18 19  1  0  0  0  0
 21 18  1  0  0  0  0
 22 25  1  0  0  0  0
 22  6  1  0  0  0  0
 23 22  1  0  0  0  0
 24 22  1  0  0  0  0
 25  3  1  0  0  0  0
 26 27  1  0  0  0  0
 26 28  1  0  0  0  0
 29  2  2  0  0  0  0
 29 26  1  0  0  0  0
M  CHG  1   3  -1
M  END
