1
 OpenBabel05122313063D

 19 19  0  0  0  0  0  0  0  0999 V2000
    1.5904    0.1708   -0.9885 O   0  5  0  0  0  0  0  0  0  0  0  0
    2.8802    0.1257   -0.6504 C   0  0  0  0  0  0  0  0  0  0  0  0
    3.5267   -1.1355   -0.6236 C   0  0  0  0  0  0  0  0  0  0  0  0
    2.9218   -2.0166   -0.8831 H   0  0  0  0  0  0  0  0  0  0  0  0
    4.8733   -1.2486   -0.2669 C   0  0  0  0  0  0  0  0  0  0  0  0
    5.3512   -2.2413   -0.2445 H   0  0  0  0  0  0  0  0  0  0  0  0
    5.6126   -0.0958    0.0618 C   0  0  0  0  0  0  0  0  0  0  0  0
    6.6744   -0.1742    0.3432 H   0  0  0  0  0  0  0  0  0  0  0  0
    4.9925    1.1568    0.0051 C   0  0  0  0  0  0  0  0  0  0  0  0
    5.5833    2.0591    0.2292 H   0  0  0  0  0  0  0  0  0  0  0  0
    3.6322    1.3116   -0.3524 C   0  0  0  0  0  0  0  0  0  0  0  0
    2.9845    2.6221   -0.4685 C   0  0  0  0  0  0  0  0  0  0  0  0
    1.9655    2.6037   -0.8878 H   0  0  0  0  0  0  0  0  0  0  0  0
    3.4892    3.8287   -0.1172 C   0  0  0  0  0  0  0  0  0  0  0  0
    4.4983    3.8946    0.3311 H   0  0  0  0  0  0  0  0  0  0  0  0
    2.7421    5.1197   -0.2663 C   0  0  0  0  0  0  0  0  0  0  0  0
    3.2801    5.8412   -0.9227 H   0  0  0  0  0  0  0  0  0  0  0  0
    2.6141    5.6329    0.7134 H   0  0  0  0  0  0  0  0  0  0  0  0
    1.7328    4.9500   -0.6920 H   0  0  0  0  0  0  0  0  0  0  0  0
  1  2  1  0  0  0  0
  2  3  2  0  0  0  0
  2 11  1  0  0  0  0
  3  5  1  0  0  0  0
  4  3  1  0  0  0  0
  5  6  1  0  0  0  0
  5  7  2  0  0  0  0
  7  8  1  0  0  0  0
  9  7  1  0  0  0  0
  9 10  1  0  0  0  0
 11  9  2  0  0  0  0
 12 11  1  0  0  0  0
 12 14  2  0  0  0  0
 13 12  1  0  0  0  0
 14 15  1  0  0  0  0
 16 14  1  0  0  0  0
 16 18  1  0  0  0  0
 17 16  1  0  0  0  0
 19 16  1  0  0  0  0
M  CHG  1   1  -1
M  END
