1
 OpenBabel05122313063D

 22 22  0  0  0  0  0  0  0  0999 V2000
   -0.3212   -0.0053   -0.5808 O   0  5  0  0  0  0  0  0  0  0  0  0
   -1.5673   -0.4000   -0.2364 C   0  0  0  0  0  0  0  0  0  0  0  0
   -2.4008    0.4846    0.4951 C   0  0  0  0  0  0  0  0  0  0  0  0
   -3.6731    0.0220    0.8770 C   0  0  0  0  0  0  0  0  0  0  0  0
   -4.1094   -1.2655    0.5341 C   0  0  0  0  0  0  0  0  0  0  0  0
   -3.2788   -2.1089   -0.2196 C   0  0  0  0  0  0  0  0  0  0  0  0
   -1.9972   -1.6969   -0.6248 C   0  0  0  0  0  0  0  0  0  0  0  0
   -1.9664    1.9137    0.7519 C   0  0  0  0  0  0  0  0  0  0  0  0
   -2.3553    2.8053   -0.4068 C   0  0  0  0  0  0  0  0  0  0  0  0
   -1.4887    3.4083   -1.2370 C   0  0  0  0  0  0  0  0  0  0  0  0
   -1.1030   -2.5619   -1.4710 C   0  0  0  0  0  0  0  0  0  0  0  0
   -4.3315    0.6934    1.4509 H   0  0  0  0  0  0  0  0  0  0  0  0
   -5.1065   -1.6107    0.8456 H   0  0  0  0  0  0  0  0  0  0  0  0
   -3.6284   -3.1125   -0.5084 H   0  0  0  0  0  0  0  0  0  0  0  0
   -3.4425    2.9152   -0.5746 H   0  0  0  0  0  0  0  0  0  0  0  0
   -0.8702    1.9737    0.9021 H   0  0  0  0  0  0  0  0  0  0  0  0
   -2.4569    2.2744    1.6816 H   0  0  0  0  0  0  0  0  0  0  0  0
   -0.3989    3.2965   -1.1114 H   0  0  0  0  0  0  0  0  0  0  0  0
   -1.8431    4.0280   -2.0756 H   0  0  0  0  0  0  0  0  0  0  0  0
   -1.5641   -3.5498   -1.6581 H   0  0  0  0  0  0  0  0  0  0  0  0
   -0.1065   -2.7201   -1.0092 H   0  0  0  0  0  0  0  0  0  0  0  0
   -0.8953   -2.0796   -2.4488 H   0  0  0  0  0  0  0  0  0  0  0  0
  1  2  1  0  0  0  0
  2  3  1  0  0  0  0
  3  8  1  0  0  0  0
  3  4  2  0  0  0  0
  4 12  1  0  0  0  0
  5 13  1  0  0  0  0
  5  4  1  0  0  0  0
  6  5  2  0  0  0  0
  7  2  2  0  0  0  0
  7  6  1  0  0  0  0
  8 16  1  0  0  0  0
  8 17  1  0  0  0  0
  9  8  1  0  0  0  0
 10 18  1  0  0  0  0
 10  9  2  0  0  0  0
 11 21  1  0  0  0  0
 11  7  1  0  0  0  0
 14  6  1  0  0  0  0
 15  9  1  0  0  0  0
 19 10  1  0  0  0  0
 20 11  1  0  0  0  0
 22 11  1  0  0  0  0
M  CHG  1   1  -1
M  END
