2
 OpenBabel05122313063D

 18 18  0  0  0  0  0  0  0  0999 V2000
    6.6707    2.7057    0.1727 Br  0  0  0  0  0  0  0  0  0  0  0  0
    1.4470   -0.2799   -0.1462 O   0  5  0  0  0  0  0  0  0  0  0  0
    2.6259    0.3724   -0.0720 C   0  0  0  0  0  0  0  0  0  0  0  0
    2.6983    1.5301    0.7480 C   0  0  0  0  0  0  0  0  0  0  0  0
    3.9222    2.2149    0.8102 C   0  0  0  0  0  0  0  0  0  0  0  0
    4.0129    3.1107    1.4409 H   0  0  0  0  0  0  0  0  0  0  0  0
    5.0247    1.7582    0.0722 C   0  0  0  0  0  0  0  0  0  0  0  0
    4.9359    0.6182   -0.7409 C   0  0  0  0  0  0  0  0  0  0  0  0
    5.8106    0.2814   -1.3153 H   0  0  0  0  0  0  0  0  0  0  0  0
    3.7314   -0.0981   -0.8280 C   0  0  0  0  0  0  0  0  0  0  0  0
    1.4963    1.9903    1.5267 C   0  0  0  0  0  0  0  0  0  0  0  0
    1.7184    2.9141    2.0922 H   0  0  0  0  0  0  0  0  0  0  0  0
    1.1577    1.2090    2.2368 H   0  0  0  0  0  0  0  0  0  0  0  0
    0.6368    2.1930    0.8549 H   0  0  0  0  0  0  0  0  0  0  0  0
    3.5988   -1.3177   -1.6976 C   0  0  0  0  0  0  0  0  0  0  0  0
    4.5425   -1.5260   -2.2348 H   0  0  0  0  0  0  0  0  0  0  0  0
    2.7865   -1.1902   -2.4423 H   0  0  0  0  0  0  0  0  0  0  0  0
    3.3229   -2.2063   -1.0954 H   0  0  0  0  0  0  0  0  0  0  0  0
  2  3  1  0  0  0  0
  3  4  1  0  0  0  0
  4  5  2  0  0  0  0
  4 11  1  0  0  0  0
  5  6  1  0  0  0  0
  7  1  1  0  0  0  0
  7  5  1  0  0  0  0
  8  7  2  0  0  0  0
  9  8  1  0  0  0  0
 10  8  1  0  0  0  0
 10  3  2  0  0  0  0
 11 12  1  0  0  0  0
 11 13  1  0  0  0  0
 14 11  1  0  0  0  0
 15 18  1  0  0  0  0
 15 10  1  0  0  0  0
 16 15  1  0  0  0  0
 17 15  1  0  0  0  0
M  CHG  1   2  -1
M  END
