1
 OpenBabel05122313063D

 16 16  0  0  0  0  0  0  0  0999 V2000
    1.7951    0.3808   -0.1648 O   0  5  0  0  0  0  0  0  0  0  0  0
    2.9235   -0.6853    1.4939 O   0  0  0  0  0  0  0  0  0  0  0  0
    7.6306    1.2030    1.1345 O   0  0  0  0  0  0  0  0  0  0  0  0
    7.4936    0.5454    1.8413 H   0  0  0  0  0  0  0  0  0  0  0  0
    5.2354    3.4108   -2.2975 O   0  0  0  0  0  0  0  0  0  0  0  0
    4.3378    3.4574   -2.6755 H   0  0  0  0  0  0  0  0  0  0  0  0
    2.8481    0.1284    0.5383 C   0  0  0  0  0  0  0  0  0  0  0  0
    4.0866    0.8910    0.1453 C   0  0  0  0  0  0  0  0  0  0  0  0
    5.2809    0.6699    0.8521 C   0  0  0  0  0  0  0  0  0  0  0  0
    5.2756   -0.0552    1.6803 H   0  0  0  0  0  0  0  0  0  0  0  0
    6.4434    1.3742    0.4876 C   0  0  0  0  0  0  0  0  0  0  0  0
    6.4132    2.2937   -0.5762 C   0  0  0  0  0  0  0  0  0  0  0  0
    7.3220    2.8426   -0.8572 H   0  0  0  0  0  0  0  0  0  0  0  0
    5.2129    2.5085   -1.2765 C   0  0  0  0  0  0  0  0  0  0  0  0
    4.0453    1.8076   -0.9197 C   0  0  0  0  0  0  0  0  0  0  0  0
    3.0943    1.9599   -1.4522 H   0  0  0  0  0  0  0  0  0  0  0  0
  1  7  1  0  0  0  0
  3  4  1  0  0  0  0
  5 14  1  0  0  0  0
  6  5  1  0  0  0  0
  7  2  2  0  0  0  0
  8  7  1  0  0  0  0
  8  9  1  0  0  0  0
  9 10  1  0  0  0  0
 11  9  2  0  0  0  0
 11  3  1  0  0  0  0
 12 11  1  0  0  0  0
 13 12  1  0  0  0  0
 14 15  1  0  0  0  0
 14 12  2  0  0  0  0
 15  8  2  0  0  0  0
 16 15  1  0  0  0  0
M  CHG  1   1  -1
M  END
