2
 OpenBabel05122313063D

 15 15  0  0  0  0  0  0  0  0999 V2000
   -1.0604   -0.0002    1.4074 O   0  0  0  0  0  1  0  0  0  0  0  0
   -2.3555    0.0001   -0.7025 O   0  0  0  0  0  1  0  0  0  0  0  0
   -2.3250   -0.0001    1.5874 N   0  0  0  0  0  2  0  0  0  0  0  0
   -2.9807   -0.0000    0.4605 N   0  0  0  0  0  0  0  0  0  0  0  0
   -4.4104    0.0001    0.4527 C   0  0  0  0  0  0  0  0  0  0  0  0
   -6.4692    0.0001   -0.8118 C   0  0  0  0  0  0  0  0  0  0  0  0
   -6.9909    0.0001   -1.7804 H   0  0  0  0  0  0  0  0  0  0  0  0
   -7.2021    0.0002    0.3845 C   0  0  0  0  0  0  0  0  0  0  0  0
   -8.3019    0.0002    0.3592 H   0  0  0  0  0  0  0  0  0  0  0  0
   -5.0675    0.0000   -0.7890 C   0  0  0  0  0  0  0  0  0  0  0  0
   -4.4706   -0.0000   -1.7095 H   0  0  0  0  0  0  0  0  0  0  0  0
   -6.5257    0.0002    1.6174 C   0  0  0  0  0  0  0  0  0  0  0  0
   -7.0947    0.0003    2.5592 H   0  0  0  0  0  0  0  0  0  0  0  0
   -5.1276    0.0001    1.6646 C   0  0  0  0  0  0  0  0  0  0  0  0
   -4.5849    0.0002    2.6181 H   0  0  0  0  0  0  0  0  0  0  0  0
  1  3  1  0  0  0  0
  2  4  1  0  0  0  0
  4  3  1  0  0  0  0
  5  4  1  0  0  0  0
  5 14  1  0  0  0  0
  6 10  1  0  0  0  0
  6  8  2  0  0  0  0
  7  6  1  0  0  0  0
  8 12  1  0  0  0  0
  9  8  1  0  0  0  0
 10  5  2  0  0  0  0
 11 10  1  0  0  0  0
 12 14  2  0  0  0  0
 12 13  1  0  0  0  0
 14 15  1  0  0  0  0
M  END
