2
 OpenBabel05122313063D

 28 29  0  0  0  0  0  0  0  0999 V2000
    1.3168   -0.2730   -1.9336 O   0  0  0  0  0  0  0  0  0  0  0  0
   -1.5479    0.0376   -1.4034 O   0  5  0  0  0  0  0  0  0  0  0  0
    1.0212   -1.4982   -1.8586 C   0  0  0  0  0  0  0  0  0  0  0  0
    2.1303   -2.4678   -1.5406 C   0  0  0  0  0  0  0  0  0  0  0  0
    3.4451   -1.9576   -1.4694 C   0  0  0  0  0  0  0  0  0  0  0  0
    3.5874   -0.8927   -1.7042 H   0  0  0  0  0  0  0  0  0  0  0  0
    4.5139   -2.7750   -1.0853 C   0  0  0  0  0  0  0  0  0  0  0  0
    5.5320   -2.3586   -1.0314 H   0  0  0  0  0  0  0  0  0  0  0  0
    4.2877   -4.1241   -0.7608 C   0  0  0  0  0  0  0  0  0  0  0  0
    5.1253   -4.7678   -0.4506 H   0  0  0  0  0  0  0  0  0  0  0  0
    2.9854   -4.6449   -0.8271 C   0  0  0  0  0  0  0  0  0  0  0  0
    2.7963   -5.6953   -0.5584 H   0  0  0  0  0  0  0  0  0  0  0  0
    1.9167   -3.8249   -1.2143 C   0  0  0  0  0  0  0  0  0  0  0  0
    0.8999   -4.2412   -1.2218 H   0  0  0  0  0  0  0  0  0  0  0  0
   -0.3279   -1.9851   -1.9586 C   0  0  0  0  0  0  0  0  0  0  0  0
   -0.4841   -3.0643   -2.0710 H   0  0  0  0  0  0  0  0  0  0  0  0
   -1.4812   -1.2129   -1.7507 C   0  0  0  0  0  0  0  0  0  0  0  0
   -2.8237   -1.8745   -1.8315 C   0  0  0  0  0  0  0  0  0  0  0  0
   -3.0688   -2.9846   -2.6688 C   0  0  0  0  0  0  0  0  0  0  0  0
   -2.2622   -3.3651   -3.3133 H   0  0  0  0  0  0  0  0  0  0  0  0
   -4.3353   -3.5833   -2.7067 C   0  0  0  0  0  0  0  0  0  0  0  0
   -4.5128   -4.4432   -3.3708 H   0  0  0  0  0  0  0  0  0  0  0  0
   -5.3784   -3.0836   -1.9088 C   0  0  0  0  0  0  0  0  0  0  0  0
   -6.3722   -3.5561   -1.9388 H   0  0  0  0  0  0  0  0  0  0  0  0
   -5.1472   -1.9730   -1.0802 C   0  0  0  0  0  0  0  0  0  0  0  0
   -5.9592   -1.5744   -0.4524 H   0  0  0  0  0  0  0  0  0  0  0  0
   -3.8844   -1.3677   -1.0479 C   0  0  0  0  0  0  0  0  0  0  0  0
   -3.6912   -0.4948   -0.4080 H   0  0  0  0  0  0  0  0  0  0  0  0
  1  3  2  0  0  0  0
  3  4  1  0  0  0  0
  4  5  2  0  0  0  0
  4 13  1  0  0  0  0
  5  7  1  0  0  0  0
  6  5  1  0  0  0  0
  7  8  1  0  0  0  0
  7  9  2  0  0  0  0
  9 10  1  0  0  0  0
 11  9  1  0  0  0  0
 11 12  1  0  0  0  0
 13 11  2  0  0  0  0
 14 13  1  0  0  0  0
 15  3  1  0  0  0  0
 15 17  2  0  0  0  0
 16 15  1  0  0  0  0
 17  2  1  0  0  0  0
 18 17  1  0  0  0  0
 18 27  1  0  0  0  0
 19 18  2  0  0  0  0
 20 19  1  0  0  0  0
 21 19  1  0  0  0  0
 21 23  2  0  0  0  0
 22 21  1  0  0  0  0
 23 25  1  0  0  0  0
 24 23  1  0  0  0  0
 25 27  2  0  0  0  0
 25 26  1  0  0  0  0
 27 28  1  0  0  0  0
M  CHG  1   2  -1
M  END
