3
 OpenBabel05122313063D

 24 24  0  0  1  0  0  0  0  0999 V2000
    2.6306   -1.6962   -1.5832 N   0  0  0  0  0  0  0  0  0  0  0  0
    2.5697   -1.5028   -0.5741 H   0  0  0  0  0  0  0  0  0  0  0  0
   -0.0008   -1.4326   -1.5118 O   0  5  0  0  0  0  0  0  0  0  0  0
   -0.4308   -3.5750   -2.1019 O   0  0  0  0  0  0  0  0  0  0  0  0
    2.7809   -0.7649   -3.6719 O   0  0  0  0  0  0  0  0  0  0  0  0
    0.3434   -2.6163   -1.8794 C   0  0  0  0  0  0  0  0  0  0  0  0
    1.8675   -2.8401   -2.0480 C   0  0  2  0  0  0  0  0  0  0  0  0
    2.0435   -2.9024   -3.1427 H   0  0  0  0  0  0  0  0  0  0  0  0
    2.3088   -4.1355   -1.3633 C   0  0  0  0  0  0  0  0  0  0  0  0
    3.3651   -4.3665   -1.6018 H   0  0  0  0  0  0  0  0  0  0  0  0
    1.6619   -4.9673   -1.6983 H   0  0  0  0  0  0  0  0  0  0  0  0
    2.2141   -4.0448   -0.2610 H   0  0  0  0  0  0  0  0  0  0  0  0
    2.9496   -0.6874   -2.4500 C   0  0  0  0  0  0  0  0  0  0  0  0
    3.5410    0.5661   -1.8411 C   0  0  0  0  0  0  0  0  0  0  0  0
    3.5706    1.7113   -2.6629 C   0  0  0  0  0  0  0  0  0  0  0  0
    3.1646    1.6105   -3.6804 H   0  0  0  0  0  0  0  0  0  0  0  0
    4.1084    2.9159   -2.1925 C   0  0  0  0  0  0  0  0  0  0  0  0
    4.1201    3.8042   -2.8429 H   0  0  0  0  0  0  0  0  0  0  0  0
    4.6464    2.9857   -0.8953 C   0  0  0  0  0  0  0  0  0  0  0  0
    5.0860    3.9255   -0.5267 H   0  0  0  0  0  0  0  0  0  0  0  0
    4.6327    1.8454   -0.0755 C   0  0  0  0  0  0  0  0  0  0  0  0
    5.0693    1.8920    0.9339 H   0  0  0  0  0  0  0  0  0  0  0  0
    4.0770    0.6419   -0.5397 C   0  0  0  0  0  0  0  0  0  0  0  0
    4.0615   -0.2383    0.1193 H   0  0  0  0  0  0  0  0  0  0  0  0
  1  2  1  0  0  0  0
  4  6  2  0  0  0  0
  5 13  2  0  0  0  0
  6  3  1  0  0  0  0
  7  8  1  6  0  0  0
  7  6  1  0  0  0  0
  7  1  1  0  0  0  0
  7  9  1  0  0  0  0
  9 12  1  0  0  0  0
 10  9  1  0  0  0  0
 11  9  1  0  0  0  0
 13 14  1  0  0  0  0
 13  1  1  0  0  0  0
 14 23  1  0  0  0  0
 15 17  1  0  0  0  0
 15 14  2  0  0  0  0
 16 15  1  0  0  0  0
 17 19  2  0  0  0  0
 18 17  1  0  0  0  0
 19 20  1  0  0  0  0
 19 21  1  0  0  0  0
 21 22  1  0  0  0  0
 23 21  2  0  0  0  0
 23 24  1  0  0  0  0
M  CHG  1   3  -1
M  END
