1
 OpenBabel05122313063D

 30 30  0  0  0  0  0  0  0  0999 V2000
   -0.2401   -2.0094    0.0138 O   0  0  0  0  0  1  0  0  0  0  0  0
   -1.5304   -1.5144    0.0074 N   0  0  0  0  0  4  0  0  0  0  0  0
   -1.4307   -1.1320    2.4335 C   0  0  0  0  0  0  0  0  0  0  0  0
   -2.2777   -3.3292    1.6043 C   0  0  0  0  0  0  0  0  0  0  0  0
   -1.4250   -1.1821   -2.4258 C   0  0  0  0  0  0  0  0  0  0  0  0
   -2.2744   -3.3618   -1.5535 C   0  0  0  0  0  0  0  0  0  0  0  0
   -2.2541   -1.8222    1.3374 C   0  0  0  0  0  0  0  0  0  0  0  0
   -3.6564   -1.1886    1.2537 C   0  0  0  0  0  0  0  0  0  0  0  0
   -4.4401   -1.5933    0.0049 C   0  0  0  0  0  0  0  0  0  0  0  0
   -3.6536   -1.2146   -1.2502 C   0  0  0  0  0  0  0  0  0  0  0  0
   -2.2511   -1.8496   -1.3176 C   0  0  0  0  0  0  0  0  0  0  0  0
   -1.4338   -0.4541   -0.0033 H   0  0  0  0  0  0  0  0  0  0  0  0
   -1.2949   -0.0988   -2.2356 H   0  0  0  0  0  0  0  0  0  0  0  0
   -1.9505   -1.3143   -3.3919 H   0  0  0  0  0  0  0  0  0  0  0  0
   -0.4219   -1.6416   -2.4925 H   0  0  0  0  0  0  0  0  0  0  0  0
   -1.2827   -3.7842   -1.3043 H   0  0  0  0  0  0  0  0  0  0  0  0
   -2.4755   -3.5514   -2.6257 H   0  0  0  0  0  0  0  0  0  0  0  0
   -3.0501   -3.8884   -0.9701 H   0  0  0  0  0  0  0  0  0  0  0  0
   -3.5420   -0.1080   -1.2881 H   0  0  0  0  0  0  0  0  0  0  0  0
   -4.2000   -1.5050   -2.1714 H   0  0  0  0  0  0  0  0  0  0  0  0
   -4.6572   -2.6826    0.0160 H   0  0  0  0  0  0  0  0  0  0  0  0
   -5.4255   -1.0845   -0.0015 H   0  0  0  0  0  0  0  0  0  0  0  0
   -3.5446   -0.0816    1.2693 H   0  0  0  0  0  0  0  0  0  0  0  0
   -4.2048   -1.4600    2.1795 H   0  0  0  0  0  0  0  0  0  0  0  0
   -3.0515   -3.8681    1.0296 H   0  0  0  0  0  0  0  0  0  0  0  0
   -2.4818   -3.4969    2.6796 H   0  0  0  0  0  0  0  0  0  0  0  0
   -1.2852   -3.7564    1.3665 H   0  0  0  0  0  0  0  0  0  0  0  0
   -1.9572   -1.2469    3.4013 H   0  0  0  0  0  0  0  0  0  0  0  0
   -1.3029   -0.0521    2.2232 H   0  0  0  0  0  0  0  0  0  0  0  0
   -0.4268   -1.5881    2.5101 H   0  0  0  0  0  0  0  0  0  0  0  0
  2  1  1  0  0  0  0
  2  7  1  0  0  0  0
  3 30  1  0  0  0  0
  3 28  1  0  0  0  0
  4 26  1  0  0  0  0
  5 13  1  0  0  0  0
  5 11  1  0  0  0  0
  6 11  1  0  0  0  0
  6 16  1  0  0  0  0
  6 18  1  0  0  0  0
  7  4  1  0  0  0  0
  7  3  1  0  0  0  0
  8 23  1  0  0  0  0
  8  7  1  0  0  0  0
  8 24  1  0  0  0  0
  9 21  1  0  0  0  0
  9  8  1  0  0  0  0
 10  9  1  0  0  0  0
 11 10  1  0  0  0  0
 11  2  1  0  0  0  0
 12  2  1  0  0  0  0
 14  5  1  0  0  0  0
 15  5  1  0  0  0  0
 17  6  1  0  0  0  0
 19 10  1  0  0  0  0
 20 10  1  0  0  0  0
 22  9  1  0  0  0  0
 25  4  1  0  0  0  0
 27  4  1  0  0  0  0
 29  3  1  0  0  0  0
M  END
