1
 OpenBabel05122313063D

 13 13  0  0  0  0  0  0  0  0999 V2000
    1.6685    0.9274   -0.7358 O   0  5  0  0  0  0  0  0  0  0  0  0
    3.7185   -0.1410   -1.8928 O   0  0  0  0  0  0  0  0  0  0  0  0
    2.6535    0.5582    0.0949 C   0  0  0  0  0  0  0  0  0  0  0  0
    2.6556    0.6721    1.5012 C   0  0  0  0  0  0  0  0  0  0  0  0
    3.7592    0.2204    2.2537 C   0  0  0  0  0  0  0  0  0  0  0  0
    4.8706   -0.3483    1.6136 C   0  0  0  0  0  0  0  0  0  0  0  0
    4.8925   -0.4740    0.2090 C   0  0  0  0  0  0  0  0  0  0  0  0
    3.7990   -0.0257   -0.5376 C   0  0  0  0  0  0  0  0  0  0  0  0
    2.8423    0.3068   -2.0617 H   0  0  0  0  0  0  0  0  0  0  0  0
    1.7752    1.1101    1.9980 H   0  0  0  0  0  0  0  0  0  0  0  0
    3.7450    0.3180    3.3503 H   0  0  0  0  0  0  0  0  0  0  0  0
    5.7310   -0.6978    2.2041 H   0  0  0  0  0  0  0  0  0  0  0  0
    5.7495   -0.9243   -0.3142 H   0  0  0  0  0  0  0  0  0  0  0  0
  1  3  1  0  0  0  0
  2  8  1  0  0  0  0
  3  4  1  0  0  0  0
  4 10  1  0  0  0  0
  4  5  2  0  0  0  0
  5 11  1  0  0  0  0
  6 12  1  0  0  0  0
  6  5  1  0  0  0  0
  7  6  2  0  0  0  0
  8  3  2  0  0  0  0
  8  7  1  0  0  0  0
  9  2  1  0  0  0  0
 13  7  1  0  0  0  0
M  CHG  1   1  -1
M  END
