2
 OpenBabel05122313063D

 17 17  0  0  0  0  0  0  0  0999 V2000
   -3.0573    1.1468   -2.9318 F   0  0  0  0  0  0  0  0  0  0  0  0
   -1.4273   -2.1238   -0.6218 O   0  5  0  0  0  0  0  0  0  0  0  0
   -2.1771   -3.0444    1.3079 O   0  0  0  0  0  0  0  0  0  0  0  0
   -6.0522   -1.9722    0.3240 O   0  0  0  0  0  0  0  0  0  0  0  0
   -5.3475    2.1498   -1.6007 O   0  0  0  0  0  0  0  0  0  0  0  0
   -4.2197   -1.7509   -1.0856 N   0  0  0  0  0  0  0  0  0  0  0  0
   -5.7158    0.0272   -0.7645 N   0  0  0  0  0  0  0  0  0  0  0  0
   -6.5222    0.3963   -0.2514 H   0  0  0  0  0  0  0  0  0  0  0  0
   -2.2920   -2.7255    0.0963 C   0  0  0  0  0  0  0  0  0  0  0  0
   -3.6313   -3.0177   -0.6264 C   0  0  0  0  0  0  0  0  0  0  0  0
   -4.3619   -3.4847    0.0546 H   0  0  0  0  0  0  0  0  0  0  0  0
   -3.4472   -3.6792   -1.4975 H   0  0  0  0  0  0  0  0  0  0  0  0
   -5.3888   -1.2910   -0.4426 C   0  0  0  0  0  0  0  0  0  0  0  0
   -5.0007    0.9744   -1.5243 C   0  0  0  0  0  0  0  0  0  0  0  0
   -3.8436    0.3585   -2.1597 C   0  0  0  0  0  0  0  0  0  0  0  0
   -3.5034   -0.9415   -1.9394 C   0  0  0  0  0  0  0  0  0  0  0  0
   -2.5970   -1.3838   -2.3717 H   0  0  0  0  0  0  0  0  0  0  0  0
  1 15  1  0  0  0  0
  2  9  1  0  0  0  0
  5 14  2  0  0  0  0
  6 10  1  0  0  0  0
  6 13  1  0  0  0  0
  7 13  1  0  0  0  0
  7  8  1  0  0  0  0
  9  3  2  0  0  0  0
 10 11  1  0  0  0  0
 10  9  1  0  0  0  0
 12 10  1  0  0  0  0
 13  4  2  0  0  0  0
 14  7  1  0  0  0  0
 15 16  2  0  0  0  0
 15 14  1  0  0  0  0
 16  6  1  0  0  0  0
 17 16  1  0  0  0  0
M  CHG  1   2  -1
M  END
