1
 OpenBabel05122313063D

 12 12  0  0  0  0  0  0  0  0999 V2000
    0.0019    1.6537   -1.3165 O   0  5  0  0  0  0  0  0  0  0  0  0
    0.0053    0.9926    1.1777 O   0  0  0  0  0  0  0  0  0  0  0  0
    0.0054    2.6234   -0.4094 N   0  0  0  0  0  0  0  0  0  0  0  0
    0.0073    2.2434    0.9452 C   0  0  0  0  0  0  0  0  0  0  0  0
    0.0112    3.3030    1.8923 C   0  0  0  0  0  0  0  0  0  0  0  0
    0.0128    3.0162    2.9525 H   0  0  0  0  0  0  0  0  0  0  0  0
    0.0130    4.6335    1.4815 C   0  0  0  0  0  0  0  0  0  0  0  0
    0.0160    5.4374    2.2327 H   0  0  0  0  0  0  0  0  0  0  0  0
    0.0108    4.9517    0.1065 C   0  0  0  0  0  0  0  0  0  0  0  0
    0.0121    5.9906   -0.2482 H   0  0  0  0  0  0  0  0  0  0  0  0
    0.0070    3.9186   -0.8219 C   0  0  0  0  0  0  0  0  0  0  0  0
    0.0051    4.0445   -1.9127 H   0  0  0  0  0  0  0  0  0  0  0  0
  1  3  1  0  0  0  0
  3  4  1  0  0  0  0
  4  2  2  0  0  0  0
  4  5  1  0  0  0  0
  5  6  1  0  0  0  0
  7  5  2  0  0  0  0
  7  8  1  0  0  0  0
  9  7  1  0  0  0  0
 10  9  1  0  0  0  0
 11  3  1  0  0  0  0
 11  9  2  0  0  0  0
 12 11  1  0  0  0  0
M  CHG  1   1  -1
M  END
