2
 OpenBabel05122313063D

 17 17  0  0  0  0  0  0  0  0999 V2000
    3.4767   -1.1135   -0.1591 O   0  5  0  0  0  0  0  0  0  0  0  0
    1.3858   -0.3098   -0.0063 O   0  0  0  0  0  0  0  0  0  0  0  0
    3.1372    1.2781    0.0083 C   0  0  0  0  0  0  0  0  0  0  0  0
    2.1518    2.2747    0.1888 C   0  0  0  0  0  0  0  0  0  0  0  0
    2.4885    3.6299    0.2602 C   0  0  0  0  0  0  0  0  0  0  0  0
    3.8358    4.0054    0.1462 C   0  0  0  0  0  0  0  0  0  0  0  0
    4.8200    3.0241   -0.0332 C   0  0  0  0  0  0  0  0  0  0  0  0
    4.5077    1.6499   -0.1050 C   0  0  0  0  0  0  0  0  0  0  0  0
    5.6242    0.6571   -0.2965 C   0  0  0  0  0  0  0  0  0  0  0  0
    2.6993   -0.1611   -0.0605 C   0  0  0  0  0  0  0  0  0  0  0  0
    1.1054    1.9509    0.2783 H   0  0  0  0  0  0  0  0  0  0  0  0
    1.7045    4.3887    0.4046 H   0  0  0  0  0  0  0  0  0  0  0  0
    4.1242    5.0666    0.1980 H   0  0  0  0  0  0  0  0  0  0  0  0
    5.8757    3.3259   -0.1215 H   0  0  0  0  0  0  0  0  0  0  0  0
    6.5977    1.1795   -0.3742 H   0  0  0  0  0  0  0  0  0  0  0  0
    5.6658   -0.0703    0.5376 H   0  0  0  0  0  0  0  0  0  0  0  0
    5.4689    0.0397   -1.2029 H   0  0  0  0  0  0  0  0  0  0  0  0
  1 10  1  0  0  0  0
  3  4  1  0  0  0  0
  4  5  2  0  0  0  0
  4 11  1  0  0  0  0
  5 12  1  0  0  0  0
  6 13  1  0  0  0  0
  6  5  1  0  0  0  0
  7  6  2  0  0  0  0
  8  7  1  0  0  0  0
  8  3  2  0  0  0  0
  9  8  1  0  0  0  0
  9 16  1  0  0  0  0
 10  2  2  0  0  0  0
 10  3  1  0  0  0  0
 14  7  1  0  0  0  0
 15  9  1  0  0  0  0
 17  9  1  0  0  0  0
M  CHG  1   1  -1
M  END
