4
 OpenBabel05122313063D

 18 18  0  0  0  0  0  0  0  0999 V2000
  -10.6601    2.1275   -0.4200 Cl  0  0  0  0  0  0  0  0  0  0  0  0
   -5.3142   -0.2186    0.5449 O   0  0  0  0  0  0  0  0  0  0  0  0
   -3.0450   -1.4320    1.1966 O   0  5  0  0  0  0  0  0  0  0  0  0
   -1.9105   -0.3476   -0.4561 O   0  0  0  0  0  0  0  0  0  0  0  0
   -9.0689    1.4527   -0.1606 C   0  0  0  0  0  0  0  0  0  0  0  0
   -8.0018    1.8424   -0.9801 C   0  0  0  0  0  0  0  0  0  0  0  0
   -8.1712    2.5726   -1.7839 H   0  0  0  0  0  0  0  0  0  0  0  0
   -6.7217    1.3018   -0.7741 C   0  0  0  0  0  0  0  0  0  0  0  0
   -5.9003    1.6221   -1.4285 H   0  0  0  0  0  0  0  0  0  0  0  0
   -6.5105    0.3655    0.2589 C   0  0  0  0  0  0  0  0  0  0  0  0
   -7.5945   -0.0196    1.0782 C   0  0  0  0  0  0  0  0  0  0  0  0
   -7.4087   -0.7513    1.8775 H   0  0  0  0  0  0  0  0  0  0  0  0
   -8.8660    0.5186    0.8724 C   0  0  0  0  0  0  0  0  0  0  0  0
   -9.7099    0.2192    1.5095 H   0  0  0  0  0  0  0  0  0  0  0  0
   -4.1982    0.1221   -0.2406 C   0  0  0  0  0  0  0  0  0  0  0  0
   -3.9682    1.2123   -0.1915 H   0  0  0  0  0  0  0  0  0  0  0  0
   -4.3539   -0.1227   -1.3176 H   0  0  0  0  0  0  0  0  0  0  0  0
   -2.9610   -0.6381    0.2370 C   0  0  0  0  0  0  0  0  0  0  0  0
  1  5  1  0  0  0  0
  4 18  2  0  0  0  0
  5 13  1  0  0  0  0
  6  8  1  0  0  0  0
  6  5  2  0  0  0  0
  7  6  1  0  0  0  0
  8 10  2  0  0  0  0
  9  8  1  0  0  0  0
 10  2  1  0  0  0  0
 10 11  1  0  0  0  0
 11 12  1  0  0  0  0
 13 11  2  0  0  0  0
 13 14  1  0  0  0  0
 15 16  1  0  0  0  0
 15 18  1  0  0  0  0
 15  2  1  0  0  0  0
 17 15  1  0  0  0  0
 18  3  1  0  0  0  0
M  CHG  1   3  -1
M  END
