1
 OpenBabel05122313063D

 18 18  0  0  0  0  0  0  0  0999 V2000
    0.5118    0.7516   -0.4755 O   0  5  0  0  0  0  0  0  0  0  0  0
    5.9438   -2.6499   -0.6088 O   0  0  0  0  0  0  0  0  0  0  0  0
    6.5707   -0.7851    0.5219 O   0  0  0  0  0  0  0  0  0  0  0  0
    1.7253    0.1976   -0.3830 C   0  0  0  0  0  0  0  0  0  0  0  0
    2.0021   -1.0713   -0.9542 C   0  0  0  0  0  0  0  0  0  0  0  0
    1.1877   -1.5986   -1.4711 H   0  0  0  0  0  0  0  0  0  0  0  0
    3.2851   -1.6119   -0.8656 C   0  0  0  0  0  0  0  0  0  0  0  0
    3.5168   -2.5929   -1.3067 H   0  0  0  0  0  0  0  0  0  0  0  0
    4.3222   -0.9194   -0.2043 C   0  0  0  0  0  0  0  0  0  0  0  0
    4.0477    0.3437    0.3636 C   0  0  0  0  0  0  0  0  0  0  0  0
    4.8533    0.8869    0.8768 H   0  0  0  0  0  0  0  0  0  0  0  0
    2.7700    0.8999    0.2741 C   0  0  0  0  0  0  0  0  0  0  0  0
    2.5560    1.8854    0.7102 H   0  0  0  0  0  0  0  0  0  0  0  0
    5.6618   -1.5591   -0.1375 C   0  0  0  0  0  0  0  0  0  0  0  0
    7.8815   -1.3440    0.6194 C   0  0  0  0  0  0  0  0  0  0  0  0
    8.4912   -0.6067    1.1720 H   0  0  0  0  0  0  0  0  0  0  0  0
    8.3130   -1.5252   -0.3863 H   0  0  0  0  0  0  0  0  0  0  0  0
    7.8626   -2.3123    1.1605 H   0  0  0  0  0  0  0  0  0  0  0  0
  1  4  1  0  0  0  0
  2 14  2  0  0  0  0
  3 15  1  0  0  0  0
  4 12  1  0  0  0  0
  5  7  1  0  0  0  0
  5  4  2  0  0  0  0
  6  5  1  0  0  0  0
  7  9  2  0  0  0  0
  8  7  1  0  0  0  0
  9 14  1  0  0  0  0
  9 10  1  0  0  0  0
 10 11  1  0  0  0  0
 12 10  2  0  0  0  0
 12 13  1  0  0  0  0
 14  3  1  0  0  0  0
 15 18  1  0  0  0  0
 15 16  1  0  0  0  0
 17 15  1  0  0  0  0
M  CHG  1   1  -1
M  END
