2
 OpenBabel05122313063D

  9  8  0  0  1  0  0  0  0  0999 V2000
   -0.2791    0.7251    1.2316 S   0  0  0  0  0  1  0  0  0  0  0  0
    1.2561    1.5849   -0.9242 O   0  0  0  0  0  1  0  0  0  0  0  0
    0.6757    3.7113   -0.8601 O   0  0  0  0  0  0  0  0  0  0  0  0
   -0.1946    2.3382    0.7632 N   0  0  0  0  0  2  0  0  0  0  0  0
    0.5650    2.4873   -0.3263 C   0  0  2  0  0  3  0  0  0  0  0  0
   -0.1333    4.7509   -0.2963 C   0  0  0  0  0  0  0  0  0  0  0  0
   -1.2098    4.4976   -0.3717 H   0  0  0  0  0  0  0  0  0  0  0  0
    0.0909    5.6580   -0.8866 H   0  0  0  0  0  0  0  0  0  0  0  0
    0.1138    4.9116    0.7722 H   0  0  0  0  0  0  0  0  0  0  0  0
  3  5  1  0  0  0  0
  3  6  1  0  0  0  0
  4  1  1  0  0  0  0
  5  2  1  1  0  0  0
  5  4  1  0  0  0  0
  6  9  1  0  0  0  0
  7  6  1  0  0  0  0
  8  6  1  0  0  0  0
M  END
