1
 OpenBabel05122313063D

 37 40  0  0  0  0  0  0  0  0999 V2000
   -0.2273   -1.0198   -1.2061 O   0  5  0  0  0  0  0  0  0  0  0  0
    0.9601   -0.6245   -1.0344 C   0  0  0  0  0  0  0  0  0  0  0  0
    1.2231    0.6546   -1.3515 O   0  0  0  0  0  0  0  0  0  0  0  0
    2.3802    1.2811   -0.9376 C   0  0  0  0  0  0  0  0  0  0  0  0
    2.3751    2.6669   -1.0581 C   0  0  0  0  0  0  0  0  0  0  0  0
    3.4658    3.3806   -0.5272 C   0  0  0  0  0  0  0  0  0  0  0  0
    4.4767    2.6927    0.1847 C   0  0  0  0  0  0  0  0  0  0  0  0
    4.4397    1.2925    0.2995 C   0  0  0  0  0  0  0  0  0  0  0  0
    3.4426    0.5170   -0.3833 C   0  0  0  0  0  0  0  0  0  0  0  0
    3.3291   -0.9359   -0.4089 C   0  0  0  0  0  0  0  0  0  0  0  0
    4.4283   -1.8689   -0.2838 C   0  0  0  0  0  0  0  0  0  0  0  0
    5.7871   -1.5020   -0.5055 C   0  0  0  0  0  3  0  0  0  0  0  0
    6.8130   -2.4285   -0.3765 C   0  0  0  0  0  0  0  0  0  0  0  0
    6.5299   -3.7671   -0.0067 C   0  0  0  0  0  0  0  0  0  0  0  0
    5.2127   -4.1757    0.1490 C   0  0  0  0  0  0  0  0  0  0  0  0
    4.1383   -3.2601   -0.0279 C   0  0  0  0  0  0  0  0  0  0  0  0
    2.7829   -3.7205   -0.0315 C   0  0  0  0  0  0  0  0  0  0  0  0
    1.7600   -2.8678   -0.3743 C   0  0  0  0  0  0  0  0  0  0  0  0
    2.0284   -1.4825   -0.5936 C   0  0  0  0  0  0  0  0  0  0  0  0
    3.4368    4.7176   -0.6904 O   0  0  0  0  0  0  0  0  0  0  0  0
    4.4906    5.5077   -0.1553 C   0  0  0  0  0  0  0  0  0  0  0  0
    5.2781    0.6122    1.1130 O   0  0  0  0  0  0  0  0  0  0  0  0
    6.3153    1.3002    1.7970 C   0  0  0  0  0  0  0  0  0  0  0  0
    1.5207    3.1878   -1.5078 H   0  0  0  0  0  0  0  0  0  0  0  0
    5.2683    3.2546    0.6907 H   0  0  0  0  0  0  0  0  0  0  0  0
    6.0209   -0.4822   -0.8323 H   0  0  0  0  0  0  0  0  0  0  0  0
    7.8512   -2.1249   -0.5771 H   0  0  0  0  0  0  0  0  0  0  0  0
    7.3510   -4.4889    0.1162 H   0  0  0  0  0  0  0  0  0  0  0  0
    4.9771   -5.2269    0.3744 H   0  0  0  0  0  0  0  0  0  0  0  0
    2.5838   -4.7830    0.1733 H   0  0  0  0  0  0  0  0  0  0  0  0
    0.7274   -3.2245   -0.4859 H   0  0  0  0  0  0  0  0  0  0  0  0
    4.2651    6.5522   -0.4353 H   0  0  0  0  0  0  0  0  0  0  0  0
    5.4747    5.2200   -0.5844 H   0  0  0  0  0  0  0  0  0  0  0  0
    4.5363    5.4321    0.9533 H   0  0  0  0  0  0  0  0  0  0  0  0
    6.8720    0.5293    2.3593 H   0  0  0  0  0  0  0  0  0  0  0  0
    5.9073    2.0504    2.5090 H   0  0  0  0  0  0  0  0  0  0  0  0
    7.0074    1.8063    1.0895 H   0  0  0  0  0  0  0  0  0  0  0  0
  1  2  1  0  0  0  0
  2 19  2  0  0  0  0
  3  2  1  0  0  0  0
  3  4  1  0  0  0  0
  4  9  1  0  0  0  0
  5  4  2  0  0  0  0
  5  6  1  0  0  0  0
  6  7  2  0  0  0  0
  7  8  1  0  0  0  0
  7 25  1  0  0  0  0
  8 22  1  0  0  0  0
  9  8  2  0  0  0  0
 10  9  1  0  0  0  0
 10 11  2  0  0  0  0
 11 16  1  0  0  0  0
 12 13  1  0  0  0  0
 12 11  1  0  0  0  0
 13 14  2  0  0  0  0
 14 28  1  0  0  0  0
 14 15  1  0  0  0  0
 15 29  1  0  0  0  0
 16 15  2  0  0  0  0
 17 16  1  0  0  0  0
 17 30  1  0  0  0  0
 18 17  2  0  0  0  0
 19 10  1  0  0  0  0
 19 18  1  0  0  0  0
 20  6  1  0  0  0  0
 20 21  1  0  0  0  0
 21 34  1  0  0  0  0
 22 23  1  0  0  0  0
 23 35  1  0  0  0  0
 23 36  1  0  0  0  0
 24  5  1  0  0  0  0
 26 12  1  0  0  0  0
 27 13  1  0  0  0  0
 31 18  1  0  0  0  0
 32 21  1  0  0  0  0
 33 21  1  0  0  0  0
 37 23  1  0  0  0  0
M  CHG  1   1  -1
M  END
