1
 OpenBabel05122313063D

 18 18  0  0  1  0  0  0  0  0999 V2000
   -1.6963   -0.5870   -0.8776 O   0  0  0  0  0  1  0  0  0  0  0  0
   -3.7569   -0.8847   -0.2063 O   0  0  0  0  0  0  0  0  0  0  0  0
   -2.5369   -1.3836   -0.4402 C   0  0  1  0  0  3  0  0  0  0  0  0
   -2.2569   -2.8504   -0.2372 C   0  0  0  0  0  0  0  0  0  0  0  0
   -3.1759   -3.8051   -1.0231 C   0  0  0  0  0  0  0  0  0  0  0  0
   -4.5549   -4.0233   -0.3936 C   0  0  0  0  0  0  0  0  0  0  0  0
   -5.4023   -2.7539   -0.2714 C   0  0  0  0  0  0  0  0  0  0  0  0
   -4.7567   -1.6313    0.5314 C   0  0  0  0  0  0  0  0  0  0  0  0
   -2.3132   -3.0493    0.8555 H   0  0  0  0  0  0  0  0  0  0  0  0
   -1.1940   -2.9901   -0.5159 H   0  0  0  0  0  0  0  0  0  0  0  0
   -2.6538   -4.7811   -1.0909 H   0  0  0  0  0  0  0  0  0  0  0  0
   -3.2807   -3.4460   -2.0701 H   0  0  0  0  0  0  0  0  0  0  0  0
   -4.4167   -4.4592    0.6212 H   0  0  0  0  0  0  0  0  0  0  0  0
   -5.1153   -4.7814   -0.9798 H   0  0  0  0  0  0  0  0  0  0  0  0
   -6.3672   -2.9986    0.2218 H   0  0  0  0  0  0  0  0  0  0  0  0
   -5.6622   -2.3543   -1.2762 H   0  0  0  0  0  0  0  0  0  0  0  0
   -5.5046   -0.8595    0.7935 H   0  0  0  0  0  0  0  0  0  0  0  0
   -4.2982   -1.9936    1.4760 H   0  0  0  0  0  0  0  0  0  0  0  0
  2  8  1  0  0  0  0
  3  1  1  6  0  0  0
  3  4  1  0  0  0  0
  3  2  1  0  0  0  0
  4  9  1  0  0  0  0
  5  6  1  0  0  0  0
  5  4  1  0  0  0  0
  6  7  1  0  0  0  0
  6 13  1  0  0  0  0
  7 15  1  0  0  0  0
  7  8  1  0  0  0  0
  8 17  1  0  0  0  0
  8 18  1  0  0  0  0
 10  4  1  0  0  0  0
 11  5  1  0  0  0  0
 12  5  1  0  0  0  0
 14  6  1  0  0  0  0
 16  7  1  0  0  0  0
M  END
