1
 OpenBabel05122313063D

 28 28  0  0  0  0  0  0  0  0999 V2000
    1.8848   -0.8750   -0.8937 O   0  5  0  0  0  0  0  0  0  0  0  0
    2.9662   -0.7631   -0.2337 C   0  0  0  0  0  0  0  0  0  0  0  0
    3.0979   -0.1066    0.8551 O   0  0  0  0  0  0  0  0  0  0  0  0
    4.1846   -1.4980   -0.7810 C   0  0  0  0  0  0  0  0  0  0  0  0
    5.5034   -1.0349   -0.1689 C   0  0  0  0  0  0  0  0  0  0  0  0
    4.0408   -2.5808   -0.5755 H   0  0  0  0  0  0  0  0  0  0  0  0
    4.1767   -1.4008   -1.8868 H   0  0  0  0  0  0  0  0  0  0  0  0
    6.6059   -1.8664   -0.6407 N   0  0  0  0  0  0  0  0  0  0  0  0
    5.4490   -1.1452    0.9309 H   0  0  0  0  0  0  0  0  0  0  0  0
    5.6627    0.0508   -0.3743 H   0  0  0  0  0  0  0  0  0  0  0  0
    8.0526   -1.8837    0.2392 S   0  0  0  0  0  0  0  0  0  0  0  0
    6.8112   -1.8129   -1.6459 H   0  0  0  0  0  0  0  0  0  0  0  0
    7.6751   -2.1108    1.6473 O   0  0  0  0  0  0  0  0  0  0  0  0
    8.9497   -2.7776   -0.5168 O   0  0  0  0  0  0  0  0  0  0  0  0
    8.7148   -0.2131    0.1200 C   0  0  0  0  0  0  0  0  0  0  0  0
    8.3254    0.7564    1.0560 C   0  0  0  0  0  0  0  0  0  0  0  0
    9.5847    0.1071   -0.9351 C   0  0  0  0  0  0  0  0  0  0  0  0
    8.8047    2.0667    0.9178 C   0  0  0  0  0  0  0  0  0  0  0  0
    7.6697    0.4722    1.8916 H   0  0  0  0  0  0  0  0  0  0  0  0
   10.0549    1.4196   -1.0546 C   0  0  0  0  0  0  0  0  0  0  0  0
    9.8949   -0.6813   -1.6367 H   0  0  0  0  0  0  0  0  0  0  0  0
    9.6730    2.4217   -0.1349 C   0  0  0  0  0  0  0  0  0  0  0  0
    8.5036    2.8321    1.6503 H   0  0  0  0  0  0  0  0  0  0  0  0
   10.7423    1.6748   -1.8768 H   0  0  0  0  0  0  0  0  0  0  0  0
   10.2104    3.8239   -0.2633 C   0  0  0  0  0  0  0  0  0  0  0  0
   10.1869    4.1735   -1.3151 H   0  0  0  0  0  0  0  0  0  0  0  0
    9.6363    4.5415    0.3538 H   0  0  0  0  0  0  0  0  0  0  0  0
   11.2697    3.8729    0.0680 H   0  0  0  0  0  0  0  0  0  0  0  0
  1  2  1  0  0  0  0
  2  3  2  0  0  0  0
  4  6  1  0  0  0  0
  4  2  1  0  0  0  0
  4  5  1  0  0  0  0
  5  9  1  0  0  0  0
  7  4  1  0  0  0  0
  8  5  1  0  0  0  0
  8 11  1  0  0  0  0
 10  5  1  0  0  0  0
 11 13  2  0  0  0  0
 12  8  1  0  0  0  0
 14 11  2  0  0  0  0
 15 11  1  0  0  0  0
 15 16  1  0  0  0  0
 16 19  1  0  0  0  0
 17 15  2  0  0  0  0
 18 16  2  0  0  0  0
 18 23  1  0  0  0  0
 20 17  1  0  0  0  0
 20 22  2  0  0  0  0
 21 17  1  0  0  0  0
 22 18  1  0  0  0  0
 24 20  1  0  0  0  0
 25 22  1  0  0  0  0
 25 28  1  0  0  0  0
 25 27  1  0  0  0  0
 26 25  1  0  0  0  0
M  CHG  1   1  -1
M  END
