12
 OpenBabel05122313063D

 21 22  0  0  0  0  0  0  0  0999 V2000
    1.8499    1.1457   -0.0307 N   0  0  0  0  0  0  0  0  0  0  0  0
    1.9090    2.2902   -0.7298 C   0  0  0  0  0  0  0  0  0  0  0  0
    3.1358    2.6362   -1.3475 C   0  0  0  0  0  0  0  0  0  0  0  0
    4.2416    1.8084   -1.2089 C   0  0  0  0  0  0  0  0  0  0  0  0
    5.2516   -0.3032   -0.3043 C   0  0  0  0  0  3  0  0  0  0  0  0
    5.0493   -1.4787    0.4165 C   0  0  0  0  0  0  0  0  0  0  0  0
    3.7897   -1.8173    0.9548 C   0  0  0  0  0  0  0  0  0  0  0  0
    2.6612   -0.9819    0.8030 C   0  0  0  0  0  0  0  0  0  0  0  0
    2.8869    0.2601    0.0954 C   0  0  0  0  0  0  0  0  0  0  0  0
    4.1632    0.5894   -0.4809 C   0  0  0  0  0  0  0  0  0  0  0  0
    0.6665    3.1202   -0.8327 C   0  0  0  0  0  0  0  0  0  0  0  0
    1.4871   -1.2885    1.2748 O   0  5  0  0  0  0  0  0  0  0  0  0
    0.9264    0.9107    0.4794 H   0  0  0  0  0  0  0  0  0  0  0  0
    3.1932    3.5691   -1.9246 H   0  0  0  0  0  0  0  0  0  0  0  0
    5.2004    2.0871   -1.6737 H   0  0  0  0  0  0  0  0  0  0  0  0
    6.2294   -0.0584   -0.7426 H   0  0  0  0  0  0  0  0  0  0  0  0
    5.8883   -2.1776    0.5572 H   0  0  0  0  0  0  0  0  0  0  0  0
    3.6413   -2.7636    1.4944 H   0  0  0  0  0  0  0  0  0  0  0  0
   -0.1377    2.5531   -1.3453 H   0  0  0  0  0  0  0  0  0  0  0  0
    0.8600    4.0488   -1.3987 H   0  0  0  0  0  0  0  0  0  0  0  0
    0.2675    3.3866    0.1664 H   0  0  0  0  0  0  0  0  0  0  0  0
  1  9  1  0  0  0  0
  1 13  1  0  0  0  0
  2  1  1  0  0  0  0
  3  4  1  0  0  0  0
  3  2  2  0  0  0  0
  4 10  2  0  0  0  0
  5  6  1  0  0  0  0
  6 17  1  0  0  0  0
  6  7  2  0  0  0  0
  7 18  1  0  0  0  0
  8  7  1  0  0  0  0
  8 12  1  0  0  0  0
  9  8  2  0  0  0  0
 10  5  1  0  0  0  0
 10  9  1  0  0  0  0
 11  2  1  0  0  0  0
 11 21  1  0  0  0  0
 14  3  1  0  0  0  0
 15  4  1  0  0  0  0
 16  5  1  0  0  0  0
 19 11  1  0  0  0  0
 20 11  1  0  0  0  0
M  CHG  1  12  -1
M  END
