3
 OpenBabel05122313063D

 28 30  0  0  0  0  0  0  0  0999 V2000
   -0.2788   -1.1749   -0.5542 S   0  0  0  0  0  0  0  0  0  0  0  0
    3.6705    0.8973    0.0799 O   0  0  0  0  0  0  0  0  0  0  0  0
   -1.1035    1.7984   -0.4005 O   0  5  0  0  0  0  0  0  0  0  0  0
    2.0202    5.2742    0.3287 O   0  0  0  0  0  0  0  0  0  0  0  0
    1.1409   -0.2496   -0.3441 C   0  0  0  0  0  0  0  0  0  0  0  0
    2.3587   -1.0069   -0.4092 C   0  0  0  0  0  0  0  0  0  0  0  0
    3.5824   -0.4292   -0.1744 C   0  0  0  0  0  0  0  0  0  0  0  0
    2.5610    1.7087    0.0593 C   0  0  0  0  0  0  0  0  0  0  0  0
    1.2463    1.1618   -0.1234 C   0  0  0  0  0  0  0  0  0  0  0  0
    0.1368    2.1084   -0.1776 C   0  0  0  0  0  0  0  0  0  0  0  0
    0.4384    3.4901   -0.0404 C   0  0  0  0  0  0  0  0  0  0  0  0
    1.7411    3.9572    0.1662 C   0  0  0  0  0  0  0  0  0  0  0  0
    2.8302    3.0623    0.2182 C   0  0  0  0  0  0  0  0  0  0  0  0
    4.8852   -1.1136   -0.1536 C   0  0  0  0  0  0  0  0  0  0  0  0
    6.0738   -0.3709    0.0380 C   0  0  0  0  0  0  0  0  0  0  0  0
    7.3188   -1.0116    0.0531 C   0  0  0  0  0  0  0  0  0  0  0  0
    7.4028   -2.4017   -0.1208 C   0  0  0  0  0  0  0  0  0  0  0  0
    6.2278   -3.1495   -0.3090 C   0  0  0  0  0  0  0  0  0  0  0  0
    4.9817   -2.5148   -0.3242 C   0  0  0  0  0  0  0  0  0  0  0  0
    2.2929   -2.0840   -0.6043 H   0  0  0  0  0  0  0  0  0  0  0  0
   -0.4110    4.1895   -0.0720 H   0  0  0  0  0  0  0  0  0  0  0  0
    1.1822    5.7713    0.2756 H   0  0  0  0  0  0  0  0  0  0  0  0
    3.8553    3.4207    0.3677 H   0  0  0  0  0  0  0  0  0  0  0  0
    6.0077    0.7168    0.1735 H   0  0  0  0  0  0  0  0  0  0  0  0
    8.2332   -0.4179    0.2026 H   0  0  0  0  0  0  0  0  0  0  0  0
    8.3817   -2.9041   -0.1079 H   0  0  0  0  0  0  0  0  0  0  0  0
    6.2829   -4.2403   -0.4417 H   0  0  0  0  0  0  0  0  0  0  0  0
    4.0744   -3.1191   -0.4639 H   0  0  0  0  0  0  0  0  0  0  0  0
  1  5  2  0  0  0  0
  3 10  1  0  0  0  0
  5  9  1  0  0  0  0
  6  5  1  0  0  0  0
  6  7  2  0  0  0  0
  7 14  1  0  0  0  0
  7  2  1  0  0  0  0
  8  2  1  0  0  0  0
  8 13  1  0  0  0  0
  9  8  2  0  0  0  0
 10  9  1  0  0  0  0
 10 11  2  0  0  0  0
 11 12  1  0  0  0  0
 12 13  2  0  0  0  0
 12  4  1  0  0  0  0
 13 23  1  0  0  0  0
 14 15  1  0  0  0  0
 15 16  2  0  0  0  0
 15 24  1  0  0  0  0
 16 25  1  0  0  0  0
 17 26  1  0  0  0  0
 17 16  1  0  0  0  0
 18 17  2  0  0  0  0
 19 18  1  0  0  0  0
 19 14  2  0  0  0  0
 20  6  1  0  0  0  0
 21 11  1  0  0  0  0
 22  4  1  0  0  0  0
 27 18  1  0  0  0  0
 28 19  1  0  0  0  0
M  CHG  1   3  -1
M  END
