1
 OpenBabel05122313063D

 30 31  0  0  0  0  0  0  0  0999 V2000
    0.4459    0.0108   -0.9715 O   0  0  0  0  0  1  0  0  0  0  0  0
   -6.0293    0.5578    0.0644 O   0  0  0  0  0  0  0  0  0  0  0  0
    0.4945    1.2567   -0.5114 N   0  0  0  0  0  0  0  0  0  0  0  0
   -0.6119    1.9377   -0.2268 C   0  0  0  0  0  3  0  0  0  0  0  0
   -1.9683    1.4839   -0.2036 C   0  0  0  0  0  0  0  0  0  0  0  0
   -2.4144    0.1777   -0.5570 C   0  0  0  0  0  0  0  0  0  0  0  0
   -3.7606   -0.1660   -0.4762 C   0  0  0  0  0  0  0  0  0  0  0  0
   -4.7164    0.7900   -0.0432 C   0  0  0  0  0  0  0  0  0  0  0  0
   -4.2893    2.1006    0.2997 C   0  0  0  0  0  0  0  0  0  0  0  0
   -2.9499    2.4365    0.2154 C   0  0  0  0  0  0  0  0  0  0  0  0
   -6.5545   -0.7282   -0.2634 C   0  0  0  0  0  0  0  0  0  0  0  0
    1.8034    1.8503   -0.4041 C   0  0  0  0  0  0  0  0  0  0  0  0
    2.1270    2.6777    0.6850 C   0  0  0  0  0  0  0  0  0  0  0  0
    3.4220    3.2057    0.7747 C   0  0  0  0  0  0  0  0  0  0  0  0
    4.3790    2.9030   -0.2072 C   0  0  0  0  0  0  0  0  0  0  0  0
    4.0424    2.0695   -1.2876 C   0  0  0  0  0  0  0  0  0  0  0  0
    2.7532    1.5354   -1.3923 C   0  0  0  0  0  0  0  0  0  0  0  0
   -0.4214    2.9952    0.0083 H   0  0  0  0  0  0  0  0  0  0  0  0
   -1.6753   -0.5511   -0.9067 H   0  0  0  0  0  0  0  0  0  0  0  0
   -4.0757   -1.1777   -0.7632 H   0  0  0  0  0  0  0  0  0  0  0  0
   -5.0473    2.8263    0.6257 H   0  0  0  0  0  0  0  0  0  0  0  0
   -2.6328    3.4560    0.4837 H   0  0  0  0  0  0  0  0  0  0  0  0
   -7.6432   -0.6655   -0.0911 H   0  0  0  0  0  0  0  0  0  0  0  0
   -6.3652   -0.9798   -1.3284 H   0  0  0  0  0  0  0  0  0  0  0  0
   -6.1240   -1.5165    0.3898 H   0  0  0  0  0  0  0  0  0  0  0  0
    1.3882    2.8760    1.4755 H   0  0  0  0  0  0  0  0  0  0  0  0
    3.6893    3.8439    1.6295 H   0  0  0  0  0  0  0  0  0  0  0  0
    5.3956    3.3148   -0.1270 H   0  0  0  0  0  0  0  0  0  0  0  0
    4.7913    1.8378   -2.0591 H   0  0  0  0  0  0  0  0  0  0  0  0
    2.4639    0.8795   -2.2245 H   0  0  0  0  0  0  0  0  0  0  0  0
  1  3  1  0  0  0  0
  3 12  1  0  0  0  0
  3  4  1  0  0  0  0
  4  5  1  0  0  0  0
  4 18  1  0  0  0  0
  5 10  1  0  0  0  0
  6  7  1  0  0  0  0
  6  5  2  0  0  0  0
  7  8  2  0  0  0  0
  8  2  1  0  0  0  0
  8  9  1  0  0  0  0
  9 21  1  0  0  0  0
 10  9  2  0  0  0  0
 10 22  1  0  0  0  0
 11 23  1  0  0  0  0
 11  2  1  0  0  0  0
 11 25  1  0  0  0  0
 12 13  1  0  0  0  0
 13 14  2  0  0  0  0
 13 26  1  0  0  0  0
 14 27  1  0  0  0  0
 15 28  1  0  0  0  0
 15 14  1  0  0  0  0
 16 15  2  0  0  0  0
 17 16  1  0  0  0  0
 17 12  2  0  0  0  0
 19  6  1  0  0  0  0
 20  7  1  0  0  0  0
 24 11  1  0  0  0  0
 29 16  1  0  0  0  0
 30 17  1  0  0  0  0
M  END
