5
 OpenBabel05122313063D

 41 42  0  0  0  0  0  0  0  0999 V2000
    0.5681   -3.3563   -0.9966 S   0  0  0  0  0  0  0  0  0  0  0  0
    0.9977   -0.1347   -0.3215 P   0  0  0  0  0  0  0  0  0  0  0  0
   -0.3611    0.5404   -2.7530 O   0  0  0  0  0  0  0  0  0  0  0  0
    3.7377    1.0837   -0.3552 O   0  0  0  0  0  0  0  0  0  0  0  0
   -0.8918   -2.8360   -0.8143 O   0  0  0  0  0  1  0  0  0  0  0  0
    1.3885   -3.0962    0.2308 O   0  0  0  0  0  1  0  0  0  0  0  0
    0.5657   -4.7152   -1.5759 O   0  0  0  0  0  1  0  0  0  0  0  0
    0.7556    1.5711   -0.9609 C   0  0  0  0  0  0  0  0  0  0  0  0
    1.1297    2.7284   -0.2596 C   0  0  0  0  0  0  0  0  0  0  0  0
    1.6617    2.6263    0.6977 H   0  0  0  0  0  0  0  0  0  0  0  0
    0.8253    4.0054   -0.7594 C   0  0  0  0  0  0  0  0  0  0  0  0
    1.1274    4.9007   -0.1969 H   0  0  0  0  0  0  0  0  0  0  0  0
    0.1313    4.1289   -1.9708 C   0  0  0  0  0  0  0  0  0  0  0  0
   -0.1074    5.1251   -2.3731 H   0  0  0  0  0  0  0  0  0  0  0  0
   -0.2805    2.9871   -2.6784 C   0  0  0  0  0  0  0  0  0  0  0  0
   -0.8385    3.0977   -3.6177 H   0  0  0  0  0  0  0  0  0  0  0  0
    0.0227    1.7109   -2.1693 C   0  0  0  0  0  0  0  0  0  0  0  0
   -1.2239    0.5734   -3.8767 C   0  0  0  0  0  0  0  0  0  0  0  0
   -1.4515   -0.4805   -4.1208 H   0  0  0  0  0  0  0  0  0  0  0  0
   -0.7400    1.0568   -4.7538 H   0  0  0  0  0  0  0  0  0  0  0  0
   -2.1719    1.1069   -3.6449 H   0  0  0  0  0  0  0  0  0  0  0  0
    2.1730    0.0346    1.0672 C   0  0  0  0  0  0  0  0  0  0  0  0
    1.8321   -0.5035    2.3196 C   0  0  0  0  0  0  0  0  0  0  0  0
    0.8631   -1.0153    2.4189 H   0  0  0  0  0  0  0  0  0  0  0  0
    2.7108   -0.4145    3.4089 C   0  0  0  0  0  0  0  0  0  0  0  0
    2.4288   -0.8436    4.3809 H   0  0  0  0  0  0  0  0  0  0  0  0
    3.9504    0.2169    3.2405 C   0  0  0  0  0  0  0  0  0  0  0  0
    4.6492    0.2974    4.0871 H   0  0  0  0  0  0  0  0  0  0  0  0
    4.3273    0.7413    1.9936 C   0  0  0  0  0  0  0  0  0  0  0  0
    5.3106    1.2163    1.8789 H   0  0  0  0  0  0  0  0  0  0  0  0
    3.4481    0.6388    0.8980 C   0  0  0  0  0  0  0  0  0  0  0  0
    4.9633    1.7554   -0.5829 C   0  0  0  0  0  0  0  0  0  0  0  0
    4.9645    2.0431   -1.6501 H   0  0  0  0  0  0  0  0  0  0  0  0
    5.8380    1.0983   -0.3814 H   0  0  0  0  0  0  0  0  0  0  0  0
    5.0498    2.6729    0.0403 H   0  0  0  0  0  0  0  0  0  0  0  0
    1.9712   -1.0310   -1.6505 C   0  0  0  0  0  0  0  0  0  0  0  0
    2.2633   -0.2850   -2.4149 H   0  0  0  0  0  0  0  0  0  0  0  0
    2.8874   -1.3724   -1.1334 H   0  0  0  0  0  0  0  0  0  0  0  0
    1.2633   -2.2235   -2.2747 C   0  0  0  0  0  0  0  0  0  0  0  0
    1.9766   -2.8459   -2.8494 H   0  0  0  0  0  0  0  0  0  0  0  0
    0.4204   -1.9375   -2.9298 H   0  0  0  0  0  0  0  0  0  0  0  0
  1  5  1  0  0  0  0
  1  6  1  0  0  0  0
  2 22  1  0  0  0  0
  3 17  1  0  0  0  0
  4 31  1  0  0  0  0
  7  1  1  0  0  0  0
  8  2  1  0  0  0  0
  8  9  1  0  0  0  0
  9 10  1  0  0  0  0
 11  9  2  0  0  0  0
 11 12  1  0  0  0  0
 13 11  1  0  0  0  0
 14 13  1  0  0  0  0
 15 17  1  0  0  0  0
 15 13  2  0  0  0  0
 16 15  1  0  0  0  0
 17  8  2  0  0  0  0
 18 21  1  0  0  0  0
 18  3  1  0  0  0  0
 19 18  1  0  0  0  0
 20 18  1  0  0  0  0
 22 23  1  0  0  0  0
 23 24  1  0  0  0  0
 23 25  2  0  0  0  0
 25 26  1  0  0  0  0
 27 25  1  0  0  0  0
 27 28  1  0  0  0  0
 29 27  2  0  0  0  0
 30 29  1  0  0  0  0
 31 22  2  0  0  0  0
 31 29  1  0  0  0  0
 32 34  1  0  0  0  0
 32  4  1  0  0  0  0
 32 35  1  0  0  0  0
 33 32  1  0  0  0  0
 36 38  1  0  0  0  0
 36  2  1  0  0  0  0
 37 36  1  0  0  0  0
 39 36  1  0  0  0  0
 39  1  1  0  0  0  0
 40 39  1  0  0  0  0
 41 39  1  0  0  0  0
M  END
