1
 OpenBabel05122313063D

 24 24  0  0  0  0  0  0  0  0999 V2000
    0.6959   -0.5963   -1.4305 O   0  5  0  0  0  0  0  0  0  0  0  0
    2.0356   -0.5477   -1.3032 C   0  0  0  0  0  0  0  0  0  0  0  0
    2.7368   -1.6554   -0.7911 C   0  0  0  0  0  0  0  0  0  0  0  0
    2.1729   -2.5607   -0.5251 H   0  0  0  0  0  0  0  0  0  0  0  0
    4.1218   -1.5757   -0.6069 C   0  0  0  0  0  0  0  0  0  0  0  0
    4.6381   -2.4478   -0.1846 H   0  0  0  0  0  0  0  0  0  0  0  0
    4.8457   -0.4086   -0.9298 C   0  0  0  0  0  0  0  0  0  0  0  0
    4.1204    0.6729   -1.4803 C   0  0  0  0  0  0  0  0  0  0  0  0
    4.6457    1.6003   -1.7556 H   0  0  0  0  0  0  0  0  0  0  0  0
    2.7373    0.6175   -1.6704 C   0  0  0  0  0  0  0  0  0  0  0  0
    2.1771    1.4752   -2.0690 H   0  0  0  0  0  0  0  0  0  0  0  0
    6.3602   -0.2756   -0.6965 C   0  0  0  0  0  0  0  0  0  0  0  0
    6.6244    0.9140    0.2553 C   0  0  0  0  0  0  0  0  0  0  0  0
    6.1362    0.7464    1.2367 H   0  0  0  0  0  0  0  0  0  0  0  0
    6.2368    1.8666   -0.1576 H   0  0  0  0  0  0  0  0  0  0  0  0
    7.7133    1.0401    0.4288 H   0  0  0  0  0  0  0  0  0  0  0  0
    6.9618   -1.5409   -0.0610 C   0  0  0  0  0  0  0  0  0  0  0  0
    6.5014   -1.7638    0.9230 H   0  0  0  0  0  0  0  0  0  0  0  0
    8.0494   -1.4000    0.1016 H   0  0  0  0  0  0  0  0  0  0  0  0
    6.8342   -2.4297   -0.7109 H   0  0  0  0  0  0  0  0  0  0  0  0
    7.0661   -0.0215   -2.0476 C   0  0  0  0  0  0  0  0  0  0  0  0
    8.1610    0.0863   -1.9009 H   0  0  0  0  0  0  0  0  0  0  0  0
    6.6983    0.9029   -2.5354 H   0  0  0  0  0  0  0  0  0  0  0  0
    6.8924   -0.8633   -2.7478 H   0  0  0  0  0  0  0  0  0  0  0  0
  1  2  1  0  0  0  0
  2  3  1  0  0  0  0
  3  5  2  0  0  0  0
  3  4  1  0  0  0  0
  5  6  1  0  0  0  0
  7 12  1  0  0  0  0
  7  5  1  0  0  0  0
  8  7  2  0  0  0  0
  9  8  1  0  0  0  0
 10  8  1  0  0  0  0
 10  2  2  0  0  0  0
 11 10  1  0  0  0  0
 12 17  1  0  0  0  0
 12 13  1  0  0  0  0
 13 16  1  0  0  0  0
 13 14  1  0  0  0  0
 15 13  1  0  0  0  0
 17 19  1  0  0  0  0
 17 18  1  0  0  0  0
 20 17  1  0  0  0  0
 21 22  1  0  0  0  0
 21 12  1  0  0  0  0
 23 21  1  0  0  0  0
 24 21  1  0  0  0  0
M  CHG  1   1  -1
M  END
