1
 OpenBabel05122313063D

 22 23  0  0  0  0  0  0  0  0999 V2000
   -0.7529    0.7634   -1.1949 O   0  5  0  0  0  0  0  0  0  0  0  0
   -0.8137   -0.7102    1.1533 O   0  5  0  0  0  0  0  0  0  0  0  0
   -1.8076   -1.3920    0.6107 N   0  3  0  0  0  0  0  0  0  0  0  0
   -1.7573    1.4064   -0.6507 C   0  0  0  0  0  0  0  0  0  0  0  0
   -1.8652    2.8230   -0.8014 C   0  0  0  0  0  0  0  0  0  0  0  0
   -1.0494    3.3281   -1.3391 H   0  0  0  0  0  0  0  0  0  0  0  0
   -2.9650    3.5404   -0.3286 C   0  0  0  0  0  0  0  0  0  0  0  0
   -3.0018    4.6326   -0.4689 H   0  0  0  0  0  0  0  0  0  0  0  0
   -4.0285    2.8801    0.3184 C   0  0  0  0  0  0  0  0  0  0  0  0
   -4.8930    3.4437    0.6981 H   0  0  0  0  0  0  0  0  0  0  0  0
   -3.9681    1.4920    0.4688 C   0  0  0  0  0  0  0  0  0  0  0  0
   -4.7917    0.9590    0.9706 H   0  0  0  0  0  0  0  0  0  0  0  0
   -2.8539    0.7469    0.0207 C   0  0  0  0  0  0  0  0  0  0  0  0
   -2.8963   -0.7155    0.1000 C   0  0  0  0  0  0  0  0  0  0  0  0
   -3.9963   -1.4832   -0.3248 C   0  0  0  0  0  0  0  0  0  0  0  0
   -4.8645   -0.9423   -0.7253 H   0  0  0  0  0  0  0  0  0  0  0  0
   -3.9663   -2.8799   -0.2875 C   0  0  0  0  0  0  0  0  0  0  0  0
   -4.8299   -3.4637   -0.6375 H   0  0  0  0  0  0  0  0  0  0  0  0
   -2.8066   -3.5239    0.1750 C   0  0  0  0  0  0  0  0  0  0  0  0
   -2.7209   -4.6187    0.1962 H   0  0  0  0  0  0  0  0  0  0  0  0
   -1.7334   -2.7557    0.6083 C   0  0  0  0  0  0  0  0  0  0  0  0
   -0.7900   -3.1535    0.9972 H   0  0  0  0  0  0  0  0  0  0  0  0
  1  4  1  0  0  0  0
  3  2  1  0  0  0  0
  4 13  1  0  0  0  0
  5  4  2  0  0  0  0
  5  7  1  0  0  0  0
  6  5  1  0  0  0  0
  7  9  2  0  0  0  0
  8  7  1  0  0  0  0
  9 11  1  0  0  0  0
  9 10  1  0  0  0  0
 11 12  1  0  0  0  0
 13 14  1  0  0  0  0
 13 11  2  0  0  0  0
 14  3  2  0  0  0  0
 15 17  2  0  0  0  0
 15 14  1  0  0  0  0
 16 15  1  0  0  0  0
 17 19  1  0  0  0  0
 18 17  1  0  0  0  0
 19 20  1  0  0  0  0
 19 21  2  0  0  0  0
 21  3  1  0  0  0  0
 21 22  1  0  0  0  0
M  CHG  3   1  -1   2  -1   3   1
M  END
