1
 OpenBabel05122313063D

 18 18  0  0  0  0  0  0  0  0999 V2000
   -0.9013    1.3979    0.1920 O   0  0  0  0  0  1  0  0  0  0  0  0
   -1.2855    2.1348   -0.9115 C   0  0  0  0  0  0  0  0  0  0  0  0
   -1.6124    1.5017   -1.7828 H   0  0  0  0  0  0  0  0  0  0  0  0
   -0.4681    2.7954   -1.3212 H   0  0  0  0  0  0  0  0  0  0  0  0
   -2.4813    3.0459   -0.5374 C   0  0  0  0  0  0  0  0  0  0  0  0
   -2.1539    3.7052    0.2947 H   0  0  0  0  0  0  0  0  0  0  0  0
   -2.7242    3.6936   -1.4059 H   0  0  0  0  0  0  0  0  0  0  0  0
   -3.6888    2.2461   -0.1214 C   0  0  0  0  0  0  0  0  0  0  0  0
   -4.7424    1.9912   -1.0223 C   0  0  0  0  0  0  0  0  0  0  0  0
   -4.7135    2.4474   -2.0251 H   0  0  0  0  0  0  0  0  0  0  0  0
   -4.8190    0.8207    1.5182 C   0  0  0  0  0  0  0  0  0  0  0  0
   -4.8448    0.3659    2.5212 H   0  0  0  0  0  0  0  0  0  0  0  0
   -3.7462    1.6502    1.1580 C   0  0  0  0  0  0  0  0  0  0  0  0
   -2.9191    1.8287    1.8598 H   0  0  0  0  0  0  0  0  0  0  0  0
   -5.8598    0.5710    0.6072 C   0  0  0  0  0  0  0  0  0  0  0  0
   -6.7037   -0.0763    0.8911 H   0  0  0  0  0  0  0  0  0  0  0  0
   -5.8201    1.1641   -0.6644 C   0  0  0  0  0  0  0  0  0  0  0  0
   -6.6334    0.9821   -1.3838 H   0  0  0  0  0  0  0  0  0  0  0  0
  2  5  1  0  0  0  0
  2  1  1  0  0  0  0
  3  2  1  0  0  0  0
  4  2  1  0  0  0  0
  5  8  1  0  0  0  0
  5  6  1  0  0  0  0
  7  5  1  0  0  0  0
  8 13  1  0  0  0  0
  9 17  1  0  0  0  0
  9  8  2  0  0  0  0
 10  9  1  0  0  0  0
 11 12  1  0  0  0  0
 13 11  2  0  0  0  0
 13 14  1  0  0  0  0
 15 16  1  0  0  0  0
 15 11  1  0  0  0  0
 17 15  2  0  0  0  0
 18 17  1  0  0  0  0
M  END
