3
 OpenBabel05122313063D

 72 77  0  0  0  0  0  0  0  0999 V2000
    1.0718    0.1493   -0.5648 C   0  0  0  0  0  3  0  0  0  0  0  0
   -0.2575    0.8512   -0.6087 C   0  0  0  0  0  0  0  0  0  0  0  0
   -1.2461    0.0128   -0.5820 O   0  5  0  0  0  0  0  0  0  0  0  0
   -0.3281    2.0949   -0.6073 O   0  0  0  0  0  0  0  0  0  0  0  0
    0.8248   -1.5358   -0.1309 P   0  0  0  0  0  4  0  0  0  0  0  0
    2.3834   -2.5020   -0.0486 C   0  0  0  0  0  0  0  0  0  0  0  0
    3.1980   -2.3941    1.0979 C   0  0  0  0  0  0  0  0  0  0  0  0
    2.8650   -1.7790    1.9471 H   0  0  0  0  0  0  0  0  0  0  0  0
    4.4172   -3.0801    1.1649 C   0  0  0  0  0  0  0  0  0  0  0  0
    5.0518   -2.9806    2.0580 H   0  0  0  0  0  0  0  0  0  0  0  0
    4.8236   -3.8963    0.0965 C   0  0  0  0  0  0  0  0  0  0  0  0
    5.7798   -4.4382    0.1512 H   0  0  0  0  0  0  0  0  0  0  0  0
    4.0031   -4.0302   -1.0339 C   0  0  0  0  0  0  0  0  0  0  0  0
    4.3088   -4.6841   -1.8646 H   0  0  0  0  0  0  0  0  0  0  0  0
    2.7863   -3.3353   -1.1103 C   0  0  0  0  0  0  0  0  0  0  0  0
    2.1432   -3.4463   -1.9955 H   0  0  0  0  0  0  0  0  0  0  0  0
   -0.2094   -2.3478   -1.3960 C   0  0  0  0  0  0  0  0  0  0  0  0
    0.0549   -2.0631   -2.7506 C   0  0  0  0  0  0  0  0  0  0  0  0
    0.8553   -1.3531   -3.0111 H   0  0  0  0  0  0  0  0  0  0  0  0
   -0.7384   -2.6403   -3.7515 C   0  0  0  0  0  0  0  0  0  0  0  0
   -0.5405   -2.4044   -4.8080 H   0  0  0  0  0  0  0  0  0  0  0  0
   -1.7995   -3.4927   -3.4059 C   0  0  0  0  0  0  0  0  0  0  0  0
   -2.4374   -3.9249   -4.1910 H   0  0  0  0  0  0  0  0  0  0  0  0
   -2.0641   -3.7678   -2.0559 C   0  0  0  0  0  0  0  0  0  0  0  0
   -2.9138   -4.4091   -1.7790 H   0  0  0  0  0  0  0  0  0  0  0  0
   -1.2735   -3.1998   -1.0469 C   0  0  0  0  0  0  0  0  0  0  0  0
   -1.5212   -3.3821    0.0079 H   0  0  0  0  0  0  0  0  0  0  0  0
    0.0930   -1.7828    1.5266 C   0  0  0  0  0  0  0  0  0  0  0  0
    0.0186   -3.0796    2.0787 C   0  0  0  0  0  0  0  0  0  0  0  0
    0.4118   -3.9441    1.5217 H   0  0  0  0  0  0  0  0  0  0  0  0
   -0.5573   -3.2663    3.3427 C   0  0  0  0  0  0  0  0  0  0  0  0
   -0.6288   -4.2796    3.7654 H   0  0  0  0  0  0  0  0  0  0  0  0
   -1.0443   -2.1638    4.0647 C   0  0  0  0  0  0  0  0  0  0  0  0
   -1.5051   -2.3155    5.0524 H   0  0  0  0  0  0  0  0  0  0  0  0
   -0.9450   -0.8720    3.5275 C   0  0  0  0  0  0  0  0  0  0  0  0
   -1.3254   -0.0004    4.0800 H   0  0  0  0  0  0  0  0  0  0  0  0
   -0.3799   -0.6787    2.2595 C   0  0  0  0  0  0  0  0  0  0  0  0
   -0.3113    0.3343    1.8442 H   0  0  0  0  0  0  0  0  0  0  0  0
    2.3544    1.2388   -0.0947 P   0  0  0  0  0  4  0  0  0  0  0  0
    4.0153    0.4869   -0.1947 C   0  0  0  0  0  0  0  0  0  0  0  0
    5.0457    0.8273    0.7034 C   0  0  0  0  0  0  0  0  0  0  0  0
    4.8465    1.5040    1.5465 H   0  0  0  0  0  0  0  0  0  0  0  0
    6.3348    0.3040    0.5187 C   0  0  0  0  0  0  0  0  0  0  0  0
    7.1346    0.5669    1.2272 H   0  0  0  0  0  0  0  0  0  0  0  0
    6.6036   -0.5443   -0.5657 C   0  0  0  0  0  0  0  0  0  0  0  0
    7.6145   -0.9560   -0.7055 H   0  0  0  0  0  0  0  0  0  0  0  0
    5.5845   -0.8578   -1.4802 C   0  0  0  0  0  0  0  0  0  0  0  0
    5.7926   -1.5139   -2.3380 H   0  0  0  0  0  0  0  0  0  0  0  0
    4.2968   -0.3385   -1.3027 C   0  0  0  0  0  0  0  0  0  0  0  0
    3.4971   -0.5749   -2.0194 H   0  0  0  0  0  0  0  0  0  0  0  0
    2.4780    2.6471   -1.2473 C   0  0  0  0  0  0  0  0  0  0  0  0
    1.9455    2.5442   -2.5449 C   0  0  0  0  0  0  0  0  0  0  0  0
    1.3642    1.6529   -2.8222 H   0  0  0  0  0  0  0  0  0  0  0  0
    2.1384    3.5914   -3.4548 C   0  0  0  0  0  0  0  0  0  0  0  0
    1.7098    3.5194   -4.4656 H   0  0  0  0  0  0  0  0  0  0  0  0
    2.8589    4.7362   -3.0745 C   0  0  0  0  0  0  0  0  0  0  0  0
    3.0007    5.5596   -3.7908 H   0  0  0  0  0  0  0  0  0  0  0  0
    3.3932    4.8334   -1.7804 C   0  0  0  0  0  0  0  0  0  0  0  0
    3.9561    5.7296   -1.4792 H   0  0  0  0  0  0  0  0  0  0  0  0
    3.2092    3.7869   -0.8641 C   0  0  0  0  0  0  0  0  0  0  0  0
    3.6288    3.8636    0.1508 H   0  0  0  0  0  0  0  0  0  0  0  0
    2.0889    1.8952    1.5909 C   0  0  0  0  0  0  0  0  0  0  0  0
    1.2237    2.9986    1.7613 C   0  0  0  0  0  0  0  0  0  0  0  0
    0.8528    3.5396    0.8806 H   0  0  0  0  0  0  0  0  0  0  0  0
    0.7869    3.3477    3.0477 C   0  0  0  0  0  0  0  0  0  0  0  0
    0.0900    4.1896    3.1703 H   0  0  0  0  0  0  0  0  0  0  0  0
    1.2120    2.6143    4.1662 C   0  0  0  0  0  0  0  0  0  0  0  0
    0.8599    2.8900    5.1716 H   0  0  0  0  0  0  0  0  0  0  0  0
    2.0739    1.5179    4.0001 C   0  0  0  0  0  0  0  0  0  0  0  0
    2.4005    0.9319    4.8722 H   0  0  0  0  0  0  0  0  0  0  0  0
    2.5022    1.1503    2.7177 C   0  0  0  0  0  0  0  0  0  0  0  0
    3.1477    0.2685    2.5956 H   0  0  0  0  0  0  0  0  0  0  0  0
  1  5  1  0  0  0  0
  1 39  1  0  0  0  0
  2  4  2  0  0  0  0
  2  3  1  0  0  0  0
  2  1  1  0  0  0  0
  5  6  1  0  0  0  0
  5 28  1  0  0  0  0
  6  7  1  0  0  0  0
  7  9  2  0  0  0  0
  7  8  1  0  0  0  0
  9 10  1  0  0  0  0
 11 12  1  0  0  0  0
 11  9  1  0  0  0  0
 13 11  2  0  0  0  0
 14 13  1  0  0  0  0
 15 13  1  0  0  0  0
 15  6  2  0  0  0  0
 16 15  1  0  0  0  0
 17 26  1  0  0  0  0
 17  5  1  0  0  0  0
 18 17  2  0  0  0  0
 19 18  1  0  0  0  0
 20 22  2  0  0  0  0
 20 18  1  0  0  0  0
 21 20  1  0  0  0  0
 22 24  1  0  0  0  0
 23 22  1  0  0  0  0
 24 25  1  0  0  0  0
 24 26  2  0  0  0  0
 26 27  1  0  0  0  0
 28 29  2  0  0  0  0
 28 37  1  0  0  0  0
 29 31  1  0  0  0  0
 30 29  1  0  0  0  0
 31 32  1  0  0  0  0
 31 33  2  0  0  0  0
 33 34  1  0  0  0  0
 35 33  1  0  0  0  0
 35 36  1  0  0  0  0
 37 35  2  0  0  0  0
 38 37  1  0  0  0  0
 39 62  1  0  0  0  0
 40 39  1  0  0  0  0
 40 41  1  0  0  0  0
 41 42  1  0  0  0  0
 43 41  2  0  0  0  0
 43 44  1  0  0  0  0
 45 43  1  0  0  0  0
 46 45  1  0  0  0  0
 47 49  1  0  0  0  0
 47 45  2  0  0  0  0
 48 47  1  0  0  0  0
 49 40  2  0  0  0  0
 50 49  1  0  0  0  0
 51 60  1  0  0  0  0
 51 39  1  0  0  0  0
 52 51  2  0  0  0  0
 53 52  1  0  0  0  0
 54 56  2  0  0  0  0
 54 52  1  0  0  0  0
 55 54  1  0  0  0  0
 56 58  1  0  0  0  0
 57 56  1  0  0  0  0
 58 59  1  0  0  0  0
 58 60  2  0  0  0  0
 60 61  1  0  0  0  0
 62 63  2  0  0  0  0
 62 71  1  0  0  0  0
 63 65  1  0  0  0  0
 64 63  1  0  0  0  0
 65 66  1  0  0  0  0
 65 67  2  0  0  0  0
 67 68  1  0  0  0  0
 69 67  1  0  0  0  0
 69 70  1  0  0  0  0
 71 69  2  0  0  0  0
 72 71  1  0  0  0  0
M  CHG  1   3  -1
M  END
