1
 OpenBabel05122313063D

 12 12  0  0  0  0  0  0  0  0999 V2000
    1.7984    0.5071   -0.8999 O   0  5  0  0  0  0  0  0  0  0  0  0
    2.2379    1.9913    0.7729 O   0  0  0  0  0  0  0  0  0  0  0  0
    5.8945   -1.3146    0.3723 N   0  0  0  0  0  0  0  0  0  0  0  0
    6.7991   -0.3379   -0.0621 N   0  0  0  0  0  0  0  0  0  0  0  0
    6.2508    0.7005   -0.5140 N   0  0  0  0  0  0  0  0  0  0  0  0
    4.8211    0.5242   -0.3316 N   0  0  0  0  0  0  0  0  0  0  0  0
    3.9545    1.4597   -0.6631 C   0  0  0  0  0  2  0  0  0  0  0  0
    2.5789    1.2911   -0.2381 C   0  0  0  0  0  0  0  0  0  0  0  0
    4.7060   -0.7926    0.2178 C   0  0  0  0  0  0  0  0  0  0  0  0
    3.5060   -1.3724    0.4796 N   0  0  0  0  0  0  0  0  0  0  0  0
    3.5622   -2.3813    0.6444 H   0  0  0  0  0  0  0  0  0  0  0  0
    2.7190   -1.0603   -0.1122 H   0  0  0  0  0  0  0  0  0  0  0  0
  1  8  1  0  0  0  0
  4  3  1  0  0  0  0
  5  6  1  0  0  0  0
  5  4  2  0  0  0  0
  6  9  1  0  0  0  0
  7  6  1  0  0  0  0
  7  8  1  0  0  0  0
  8  2  2  0  0  0  0
  9  3  2  0  0  0  0
  9 10  1  0  0  0  0
 10 11  1  0  0  0  0
 12 10  1  0  0  0  0
M  CHG  1   1  -1
M  END
