2
 OpenBabel05122313063D

 38 40  0  0  0  0  0  0  0  0999 V2000
   -0.9245    0.3698   -0.0488 P   0  0  1  0  0  0  0  0  0  0  0  0
    1.3052    1.7374   -1.3298 O   0  5  0  0  0  0  0  0  0  0  0  0
   -1.4108   -2.5277    0.4760 O   0  0  0  0  0  0  0  0  0  0  0  0
    0.1959    2.4303   -1.4284 C   0  0  0  0  0  0  0  0  0  0  0  0
    0.1843    3.6875   -2.1083 C   0  0  0  0  0  0  0  0  0  0  0  0
   -0.9716    4.4649   -2.1441 C   0  0  0  0  0  0  0  0  0  0  0  0
   -2.1670    4.0424   -1.5175 C   0  0  0  0  0  0  0  0  0  0  0  0
   -2.1879    2.8067   -0.8650 C   0  0  0  0  0  0  0  0  0  0  0  0
   -1.0322    1.9964   -0.8378 C   0  0  0  0  0  0  0  0  0  0  0  0
   -1.6404    0.6417    1.6262 C   0  0  0  0  0  0  0  0  0  0  0  0
   -1.2071    1.7898    2.3255 C   0  0  0  0  0  0  0  0  0  0  0  0
   -1.6627    2.0444    3.6262 C   0  0  0  0  0  0  0  0  0  0  0  0
   -2.5603    1.1574    4.2446 C   0  0  0  0  0  0  0  0  0  0  0  0
   -3.0095    0.0256    3.5471 C   0  0  0  0  0  0  0  0  0  0  0  0
   -2.5545   -0.2332    2.2442 C   0  0  0  0  0  0  0  0  0  0  0  0
   -2.0872   -0.7466   -0.9305 C   0  0  0  0  0  0  0  0  0  0  0  0
   -2.8161   -0.2823   -2.0384 C   0  0  0  0  0  0  0  0  0  0  0  0
   -3.6346   -1.1458   -2.7820 C   0  0  0  0  0  0  0  0  0  0  0  0
   -3.7134   -2.4974   -2.4268 C   0  0  0  0  0  0  0  0  0  0  0  0
   -2.9790   -2.9912   -1.3373 C   0  0  0  0  0  0  0  0  0  0  0  0
   -2.1602   -2.1225   -0.5930 C   0  0  0  0  0  0  0  0  0  0  0  0
   -1.5013   -3.8792    0.8869 C   0  0  0  0  0  0  0  0  0  0  0  0
    1.1166    4.0232   -2.5858 H   0  0  0  0  0  0  0  0  0  0  0  0
   -0.9480    5.4341   -2.6676 H   0  0  0  0  0  0  0  0  0  0  0  0
   -3.0665    4.6743   -1.5449 H   0  0  0  0  0  0  0  0  0  0  0  0
   -3.1062    2.4560   -0.3670 H   0  0  0  0  0  0  0  0  0  0  0  0
   -0.5210    2.4942    1.8308 H   0  0  0  0  0  0  0  0  0  0  0  0
   -1.3213    2.9460    4.1575 H   0  0  0  0  0  0  0  0  0  0  0  0
   -2.9194    1.3566    5.2657 H   0  0  0  0  0  0  0  0  0  0  0  0
   -3.7272   -0.6633    4.0184 H   0  0  0  0  0  0  0  0  0  0  0  0
   -2.9165   -1.1179    1.7050 H   0  0  0  0  0  0  0  0  0  0  0  0
   -2.7225    0.7730   -2.3309 H   0  0  0  0  0  0  0  0  0  0  0  0
   -4.1973   -0.7599   -3.6442 H   0  0  0  0  0  0  0  0  0  0  0  0
   -4.3449   -3.1885   -3.0055 H   0  0  0  0  0  0  0  0  0  0  0  0
   -3.0383   -4.0579   -1.0852 H   0  0  0  0  0  0  0  0  0  0  0  0
   -0.8798   -3.9724    1.7968 H   0  0  0  0  0  0  0  0  0  0  0  0
   -2.5472   -4.1644    1.1373 H   0  0  0  0  0  0  0  0  0  0  0  0
   -1.1116   -4.5716    0.1093 H   0  0  0  0  0  0  0  0  0  0  0  0
  1 16  1  6  0  0  0
  1 10  1  0  0  0  0
  3 22  1  0  0  0  0
  4  2  1  0  0  0  0
  4  9  1  0  0  0  0
  5  4  2  0  0  0  0
  6  5  1  0  0  0  0
  6  7  2  0  0  0  0
  7  8  1  0  0  0  0
  8  9  2  0  0  0  0
  8 26  1  0  0  0  0
  9  1  1  0  0  0  0
 10 15  2  0  0  0  0
 10 11  1  0  0  0  0
 11 12  2  0  0  0  0
 12 28  1  0  0  0  0
 12 13  1  0  0  0  0
 13 29  1  0  0  0  0
 14 30  1  0  0  0  0
 14 13  2  0  0  0  0
 15 14  1  0  0  0  0
 16 21  1  0  0  0  0
 17 16  2  0  0  0  0
 18 19  2  0  0  0  0
 18 17  1  0  0  0  0
 19 20  1  0  0  0  0
 20 35  1  0  0  0  0
 20 21  2  0  0  0  0
 21  3  1  0  0  0  0
 22 37  1  0  0  0  0
 22 36  1  0  0  0  0
 23  5  1  0  0  0  0
 24  6  1  0  0  0  0
 25  7  1  0  0  0  0
 27 11  1  0  0  0  0
 31 15  1  0  0  0  0
 32 17  1  0  0  0  0
 33 18  1  0  0  0  0
 34 19  1  0  0  0  0
 38 22  1  0  0  0  0
M  CHG  1   2  -1
M  END
