4
 OpenBabel05122313063D

 18 18  0  0  1  0  0  0  0  0999 V2000
   -1.6186    2.6580    2.9093 F   0  0  0  0  0  0  0  0  0  0  0  0
   -0.4373    3.6963    1.3904 F   0  0  0  0  0  0  0  0  0  0  0  0
    0.3930    1.9633    2.4256 F   0  0  0  0  0  0  0  0  0  0  0  0
   -0.3815    1.3689   -0.2186 O   0  0  0  0  0  1  0  0  0  0  0  0
   -1.3176    1.5362    0.7916 C   0  0  1  0  0  0  0  0  0  0  0  0
   -0.7574    2.4742    1.8796 C   0  0  0  0  0  0  0  0  0  0  0  0
   -2.6418    2.0722    0.2515 C   0  0  0  0  0  0  0  0  0  0  0  0
   -2.6826    2.6960   -1.0079 C   0  0  0  0  0  0  0  0  0  0  0  0
   -3.9005    3.1552   -1.5322 C   0  0  0  0  0  0  0  0  0  0  0  0
   -5.0887    2.9996   -0.7995 C   0  0  0  0  0  0  0  0  0  0  0  0
   -5.0514    2.3814    0.4608 C   0  0  0  0  0  0  0  0  0  0  0  0
   -3.8347    1.9186    0.9817 C   0  0  0  0  0  0  0  0  0  0  0  0
   -1.5431    0.5774    1.3224 H   0  0  0  0  0  0  0  0  0  0  0  0
   -1.7452    2.7883   -1.5745 H   0  0  0  0  0  0  0  0  0  0  0  0
   -3.9239    3.6362   -2.5225 H   0  0  0  0  0  0  0  0  0  0  0  0
   -6.0451    3.3545   -1.2135 H   0  0  0  0  0  0  0  0  0  0  0  0
   -5.9797    2.2412    1.0356 H   0  0  0  0  0  0  0  0  0  0  0  0
   -3.8119    1.4125    1.9585 H   0  0  0  0  0  0  0  0  0  0  0  0
  2  6  1  0  0  0  0
  4  5  1  0  0  0  0
  5 13  1  1  0  0  0
  5  6  1  0  0  0  0
  6  3  1  0  0  0  0
  6  1  1  0  0  0  0
  7  5  1  0  0  0  0
  7 12  1  0  0  0  0
  8  7  2  0  0  0  0
  9  8  1  0  0  0  0
  9 10  2  0  0  0  0
 10 11  1  0  0  0  0
 11 12  2  0  0  0  0
 11 17  1  0  0  0  0
 12 18  1  0  0  0  0
 14  8  1  0  0  0  0
 15  9  1  0  0  0  0
 16 10  1  0  0  0  0
M  END
