1
 OpenBabel05122313063D

 35 37  0  0  0  0  0  0  0  0999 V2000
   -0.3047   -0.0909   -0.2982 O   0  0  0  0  0  1  0  0  0  0  0  0
   -0.0896   -1.4661    0.3702 B   0  0  0  0  0  0  0  0  0  0  0  0
   -0.8471   -1.3930    1.8088 C   0  0  0  0  0  0  0  0  0  0  0  0
   -1.9491   -0.5284    2.0097 C   0  0  0  0  0  0  0  0  0  0  0  0
   -2.6351   -0.4665    3.2335 C   0  0  0  0  0  0  0  0  0  0  0  0
   -2.2398   -1.2845    4.3050 C   0  0  0  0  0  0  0  0  0  0  0  0
   -1.1611   -2.1654    4.1290 C   0  0  0  0  0  0  0  0  0  0  0  0
   -0.4791   -2.2130    2.9008 C   0  0  0  0  0  0  0  0  0  0  0  0
   -0.7719   -2.5654   -0.6216 C   0  0  0  0  0  0  0  0  0  0  0  0
   -1.0678   -3.8702   -0.1673 C   0  0  0  0  0  0  0  0  0  0  0  0
   -1.6209   -4.8422   -1.0153 C   0  0  0  0  0  0  0  0  0  0  0  0
   -1.9038   -4.5325   -2.3562 C   0  0  0  0  0  0  0  0  0  0  0  0
   -1.6228   -3.2432   -2.8338 C   0  0  0  0  0  0  0  0  0  0  0  0
   -1.0647   -2.2805   -1.9749 C   0  0  0  0  0  0  0  0  0  0  0  0
    1.5424   -1.5982    0.4486 C   0  0  0  0  0  0  0  0  0  0  0  0
    2.2795   -2.0436   -0.6730 C   0  0  0  0  0  0  0  0  0  0  0  0
    3.6840   -2.0512   -0.6855 C   0  0  0  0  0  0  0  0  0  0  0  0
    4.4013   -1.6183    0.4421 C   0  0  0  0  0  0  0  0  0  0  0  0
    3.6963   -1.1771    1.5730 C   0  0  0  0  0  0  0  0  0  0  0  0
    2.2906   -1.1629    1.5660 C   0  0  0  0  0  0  0  0  0  0  0  0
   -2.2820    0.1030    1.1714 H   0  0  0  0  0  0  0  0  0  0  0  0
   -3.4952    0.2143    3.3505 H   0  0  0  0  0  0  0  0  0  0  0  0
   -2.7738   -1.2420    5.2672 H   0  0  0  0  0  0  0  0  0  0  0  0
   -0.8452   -2.8197    4.9574 H   0  0  0  0  0  0  0  0  0  0  0  0
    0.3720   -2.9047    2.7906 H   0  0  0  0  0  0  0  0  0  0  0  0
   -0.8685   -4.1306    0.8850 H   0  0  0  0  0  0  0  0  0  0  0  0
   -1.8396   -5.8496   -0.6261 H   0  0  0  0  0  0  0  0  0  0  0  0
   -2.3415   -5.2918   -3.0232 H   0  0  0  0  0  0  0  0  0  0  0  0
   -1.8365   -2.9856   -3.8843 H   0  0  0  0  0  0  0  0  0  0  0  0
   -0.8521   -1.2734   -2.3700 H   0  0  0  0  0  0  0  0  0  0  0  0
    1.7300   -2.4001   -1.5598 H   0  0  0  0  0  0  0  0  0  0  0  0
    4.2250   -2.4103   -1.5762 H   0  0  0  0  0  0  0  0  0  0  0  0
    5.5028   -1.6353    0.4431 H   0  0  0  0  0  0  0  0  0  0  0  0
    4.2468   -0.8452    2.4686 H   0  0  0  0  0  0  0  0  0  0  0  0
    1.7545   -0.8096    2.4627 H   0  0  0  0  0  0  0  0  0  0  0  0
  1  2  1  0  0  0  0
  2 15  1  0  0  0  0
  2  3  1  0  0  0  0
  3  4  2  0  0  0  0
  3  8  1  0  0  0  0
  4  5  1  0  0  0  0
  5 22  1  0  0  0  0
  5  6  2  0  0  0  0
  6 23  1  0  0  0  0
  7  6  1  0  0  0  0
  7 24  1  0  0  0  0
  8  7  2  0  0  0  0
  9 10  1  0  0  0  0
  9  2  1  0  0  0  0
 10 26  1  0  0  0  0
 11 27  1  0  0  0  0
 11 10  2  0  0  0  0
 12 11  1  0  0  0  0
 13 12  2  0  0  0  0
 13 14  1  0  0  0  0
 14  9  2  0  0  0  0
 15 20  1  0  0  0  0
 16 15  2  0  0  0  0
 17 16  1  0  0  0  0
 17 18  2  0  0  0  0
 18 33  1  0  0  0  0
 18 19  1  0  0  0  0
 19 34  1  0  0  0  0
 20 19  2  0  0  0  0
 20 35  1  0  0  0  0
 21  4  1  0  0  0  0
 25  8  1  0  0  0  0
 28 12  1  0  0  0  0
 29 13  1  0  0  0  0
 30 14  1  0  0  0  0
 31 16  1  0  0  0  0
 32 17  1  0  0  0  0
M  END
