1
 OpenBabel05122313063D

 11 10  0  0  0  0  0  0  0  0999 V2000
   -1.7772   -0.8272    0.4542 O   0  5  0  0  0  0  0  0  0  0  0  0
   -3.8432   -0.7079   -0.4653 O   0  0  0  0  0  0  0  0  0  0  0  0
   -1.0207    1.4820   -0.6180 O   0  0  0  0  0  0  0  0  0  0  0  0
   -2.7074   -0.2913   -0.2946 C   0  0  0  0  0  0  0  0  0  0  0  0
   -2.2721    0.9650   -1.0868 C   0  0  0  0  0  0  0  0  0  0  0  0
   -0.3081    2.2962   -1.5445 C   0  0  0  0  0  0  0  0  0  0  0  0
   -2.1811    0.6688   -2.1578 H   0  0  0  0  0  0  0  0  0  0  0  0
   -3.0698    1.7360   -1.0176 H   0  0  0  0  0  0  0  0  0  0  0  0
    0.6607    2.5439   -1.0718 H   0  0  0  0  0  0  0  0  0  0  0  0
   -0.1178    1.7453   -2.4938 H   0  0  0  0  0  0  0  0  0  0  0  0
   -0.8721    3.2254   -1.7794 H   0  0  0  0  0  0  0  0  0  0  0  0
  2  4  2  0  0  0  0
  4  1  1  0  0  0  0
  5  8  1  0  0  0  0
  5  3  1  0  0  0  0
  5  4  1  0  0  0  0
  6  9  1  0  0  0  0
  6  3  1  0  0  0  0
  7  5  1  0  0  0  0
 10  6  1  0  0  0  0
 11  6  1  0  0  0  0
M  CHG  1   1  -1
M  END
