27
 OpenBabel05122313063D

 43 42  0  0  1  0  0  0  0  0999 V2000
   -1.7783    0.2623    0.8066 N   0  0  0  0  0  0  0  0  0  0  0  0
   -1.2180    0.9637    1.9968 C   0  0  2  0  0  0  0  0  0  0  0  0
   -1.0330    2.0026    1.6464 H   0  0  0  0  0  0  0  0  0  0  0  0
    0.1254    0.3691    2.4601 C   0  0  0  0  0  0  0  0  0  0  0  0
    0.4277    0.9083    3.3889 H   0  0  0  0  0  0  0  0  0  0  0  0
   -0.0211   -0.6901    2.7332 H   0  0  0  0  0  0  0  0  0  0  0  0
    1.1958    0.4315    1.4538 N   0  0  0  0  0  0  0  0  0  0  0  0
   -2.2707   -1.0912    1.0680 C   0  0  0  0  0  0  0  0  0  0  0  0
   -3.2316   -1.0931    1.6335 H   0  0  0  0  0  0  0  0  0  0  0  0
   -1.5066   -1.6329    1.6609 H   0  0  0  0  0  0  0  0  0  0  0  0
   -2.4462   -1.8955   -0.2294 C   0  0  0  0  0  0  0  0  0  0  0  0
   -3.0367   -3.1014   -0.0810 N   0  0  0  0  0  0  0  0  0  0  0  0
   -3.1041   -3.7108   -0.8985 H   0  0  0  0  0  0  0  0  0  0  0  0
   -3.2826   -3.4806    0.8331 H   0  0  0  0  0  0  0  0  0  0  0  0
   -2.0767   -1.4645   -1.3298 O   0  0  0  0  0  0  0  0  0  0  0  0
   -2.1823    1.0277    3.1893 C   0  0  0  0  0  0  0  0  0  0  0  0
   -3.1853    1.3969    2.8981 H   0  0  0  0  0  0  0  0  0  0  0  0
   -1.7915    1.7190    3.9611 H   0  0  0  0  0  0  0  0  0  0  0  0
   -2.3068    0.0351    3.6660 H   0  0  0  0  0  0  0  0  0  0  0  0
   -2.7458    1.0850    0.0872 C   0  0  0  0  0  0  0  0  0  0  0  0
   -3.5193    1.5244    0.7597 H   0  0  0  0  0  0  0  0  0  0  0  0
   -3.2689    0.4452   -0.6526 H   0  0  0  0  0  0  0  0  0  0  0  0
   -2.0711    2.1837   -0.7361 C   0  0  2  0  0  3  0  0  0  0  0  0
   -2.8046    3.2861   -0.9756 N   0  0  0  0  0  0  0  0  0  0  0  0
   -2.4377    3.9948   -1.6152 H   0  0  0  0  0  0  0  0  0  0  0  0
   -3.7491    3.3997   -0.6072 H   0  0  0  0  0  0  0  0  0  0  0  0
   -0.9235    2.0517   -1.1972 O   0  0  0  0  0  1  0  0  0  0  0  0
    2.2129   -0.6195    1.5782 C   0  0  0  0  0  0  0  0  0  0  0  0
    2.7315   -0.5682    2.5689 H   0  0  0  0  0  0  0  0  0  0  0  0
    2.9787   -0.4401    0.7956 H   0  0  0  0  0  0  0  0  0  0  0  0
    1.6850   -2.0557    1.3950 C   0  0  0  0  0  0  0  0  0  0  0  0
    2.6577   -2.9815    1.2223 N   0  0  0  0  0  0  0  0  0  0  0  0
    2.3564   -3.9363    1.0166 H   0  0  0  0  0  0  0  0  0  0  0  0
    3.5970   -2.7165    0.9253 H   0  0  0  0  0  0  0  0  0  0  0  0
    0.4889   -2.3528    1.4795 O   0  0  0  0  0  0  0  0  0  0  0  0
    1.8161    1.7532    1.4155 C   0  0  0  0  0  0  0  0  0  0  0  0
    2.4856    1.9125    2.2972 H   0  0  0  0  0  0  0  0  0  0  0  0
    1.0167    2.5207    1.4781 H   0  0  0  0  0  0  0  0  0  0  0  0
    2.5632    2.0412    0.1025 C   0  0  0  0  0  0  0  0  0  0  0  0
    3.6678    2.8156    0.2247 N   0  0  0  0  0  0  0  0  0  0  0  0
    4.1580    3.1027   -0.6251 H   0  0  0  0  0  0  0  0  0  0  0  0
    4.0237    3.1298    1.1267 H   0  0  0  0  0  0  0  0  0  0  0  0
    2.1502    1.6379   -0.9864 O   0  0  0  0  0  0  0  0  0  0  0  0
  1  8  1  0  0  0  0
  1  2  1  0  0  0  0
  2  3  1  6  0  0  0
  2  4  1  0  0  0  0
  2 16  1  0  0  0  0
  4  6  1  0  0  0  0
  4  5  1  0  0  0  0
  7 28  1  0  0  0  0
  7  4  1  0  0  0  0
  8  9  1  0  0  0  0
  8 10  1  0  0  0  0
 11 12  1  0  0  0  0
 11  8  1  0  0  0  0
 12 14  1  0  0  0  0
 13 12  1  0  0  0  0
 15 11  2  0  0  0  0
 16 19  1  0  0  0  0
 16 18  1  0  0  0  0
 17 16  1  0  0  0  0
 20 21  1  0  0  0  0
 20  1  1  0  0  0  0
 22 20  1  0  0  0  0
 23 27  1  6  0  0  0
 23 20  1  0  0  0  0
 24 23  1  0  0  0  0
 24 26  1  0  0  0  0
 25 24  1  0  0  0  0
 28 29  1  0  0  0  0
 30 28  1  0  0  0  0
 31 35  2  0  0  0  0
 31 28  1  0  0  0  0
 32 31  1  0  0  0  0
 33 32  1  0  0  0  0
 34 32  1  0  0  0  0
 36  7  1  0  0  0  0
 36 38  1  0  0  0  0
 36 37  1  0  0  0  0
 39 40  1  0  0  0  0
 39 36  1  0  0  0  0
 40 42  1  0  0  0  0
 41 40  1  0  0  0  0
 43 39  2  0  0  0  0
M  END
