2
 OpenBabel05122313063D

 40 41  0  0  0  0  0  0  0  0999 V2000
    0.9636    0.1466    0.6124 P   0  0  0  0  0  0  0  0  0  0  0  0
   -1.1356   -0.7509    2.4406 O   0  5  0  0  0  0  0  0  0  0  0  0
    0.0315   -0.5611    3.0023 C   0  0  0  0  0  0  0  0  0  0  0  0
    0.0573   -0.7747    4.0960 H   0  0  0  0  0  0  0  0  0  0  0  0
    1.1782   -0.1360    2.3673 C   0  0  0  0  0  0  0  0  0  0  0  0
    2.1228    0.0108    2.9117 H   0  0  0  0  0  0  0  0  0  0  0  0
    1.5720    1.8784    0.2594 C   0  0  0  0  0  0  0  0  0  0  0  0
    2.5600    1.9612    0.7692 H   0  0  0  0  0  0  0  0  0  0  0  0
    0.6074    2.8892    0.9069 C   0  0  0  0  0  0  0  0  0  0  0  0
    0.5235    2.6784    1.9931 H   0  0  0  0  0  0  0  0  0  0  0  0
   -0.4098    2.7266    0.4837 H   0  0  0  0  0  0  0  0  0  0  0  0
    1.0495    4.3362    0.6568 C   0  0  0  0  0  0  0  0  0  0  0  0
    0.3150    5.0395    1.1023 H   0  0  0  0  0  0  0  0  0  0  0  0
    2.0155    4.5214    1.1789 H   0  0  0  0  0  0  0  0  0  0  0  0
    1.2251    4.6164   -0.8410 C   0  0  0  0  0  0  0  0  0  0  0  0
    1.5714    5.6582   -1.0067 H   0  0  0  0  0  0  0  0  0  0  0  0
    0.2361    4.5308   -1.3460 H   0  0  0  0  0  0  0  0  0  0  0  0
    2.2017    3.6207   -1.4787 C   0  0  0  0  0  0  0  0  0  0  0  0
    3.2145    3.7731   -1.0417 H   0  0  0  0  0  0  0  0  0  0  0  0
    2.3004    3.8112   -2.5681 H   0  0  0  0  0  0  0  0  0  0  0  0
    1.7697    2.1662   -1.2388 C   0  0  0  0  0  0  0  0  0  0  0  0
    0.8158    1.9741   -1.7788 H   0  0  0  0  0  0  0  0  0  0  0  0
    2.5185    1.4737   -1.6757 H   0  0  0  0  0  0  0  0  0  0  0  0
    2.1352   -0.9845   -0.3063 C   0  0  0  0  0  0  0  0  0  0  0  0
    1.9943   -0.7406   -1.3849 H   0  0  0  0  0  0  0  0  0  0  0  0
    3.6136   -0.7748    0.0611 C   0  0  0  0  0  0  0  0  0  0  0  0
    3.9282    0.2691   -0.1476 H   0  0  0  0  0  0  0  0  0  0  0  0
    3.7317   -0.9287    1.1568 H   0  0  0  0  0  0  0  0  0  0  0  0
    4.5239   -1.7582   -0.6909 C   0  0  0  0  0  0  0  0  0  0  0  0
    4.4811   -1.5314   -1.7804 H   0  0  0  0  0  0  0  0  0  0  0  0
    5.5801   -1.6080   -0.3827 H   0  0  0  0  0  0  0  0  0  0  0  0
    4.0961   -3.2131   -0.4617 C   0  0  0  0  0  0  0  0  0  0  0  0
    4.7461   -3.9035   -1.0393 H   0  0  0  0  0  0  0  0  0  0  0  0
    4.2415   -3.4697    0.6118 H   0  0  0  0  0  0  0  0  0  0  0  0
    2.6224   -3.4234   -0.8316 C   0  0  0  0  0  0  0  0  0  0  0  0
    2.3137   -4.4690   -0.6213 H   0  0  0  0  0  0  0  0  0  0  0  0
    2.4955   -3.2746   -1.9281 H   0  0  0  0  0  0  0  0  0  0  0  0
    1.7089   -2.4462   -0.0805 C   0  0  0  0  0  0  0  0  0  0  0  0
    1.7463   -2.6569    1.0115 H   0  0  0  0  0  0  0  0  0  0  0  0
    0.6471   -2.5765   -0.3794 H   0  0  0  0  0  0  0  0  0  0  0  0
  1  5  1  0  0  0  0
  2  3  1  0  0  0  0
  3  4  1  0  0  0  0
  5  6  1  0  0  0  0
  5  3  2  0  0  0  0
  7  1  1  0  0  0  0
  7  8  1  0  0  0  0
  7  9  1  0  0  0  0
  9 10  1  0  0  0  0
 11  9  1  0  0  0  0
 12  9  1  0  0  0  0
 12 13  1  0  0  0  0
 12 14  1  0  0  0  0
 15 12  1  0  0  0  0
 16 15  1  0  0  0  0
 17 15  1  0  0  0  0
 18 21  1  0  0  0  0
 18 19  1  0  0  0  0
 18 15  1  0  0  0  0
 20 18  1  0  0  0  0
 21  7  1  0  0  0  0
 22 21  1  0  0  0  0
 23 21  1  0  0  0  0
 24 38  1  0  0  0  0
 24 26  1  0  0  0  0
 24  1  1  0  0  0  0
 25 24  1  0  0  0  0
 26 28  1  0  0  0  0
 27 26  1  0  0  0  0
 29 32  1  0  0  0  0
 29 31  1  0  0  0  0
 29 26  1  0  0  0  0
 30 29  1  0  0  0  0
 32 34  1  0  0  0  0
 33 32  1  0  0  0  0
 35 36  1  0  0  0  0
 35 32  1  0  0  0  0
 35 38  1  0  0  0  0
 37 35  1  0  0  0  0
 38 39  1  0  0  0  0
 40 38  1  0  0  0  0
M  CHG  1   2  -1
M  END
