1
 OpenBabel05122313063D

 30 30  0  0  0  0  0  0  0  0999 V2000
   -0.1154    1.0018   -0.7089 O   0  5  0  0  0  0  0  0  0  0  0  0
    3.7296   -0.1917    0.1433 N   0  0  0  0  0  0  0  0  0  0  0  0
    0.7778    1.9480   -0.3700 C   0  0  0  0  0  0  0  0  0  0  0  0
    0.3493    3.3023   -0.3209 C   0  0  0  0  0  0  0  0  0  0  0  0
    1.2824    4.2677    0.0895 C   0  0  0  0  0  0  0  0  0  0  0  0
    2.6016    3.9171    0.4343 C   0  0  0  0  0  0  0  0  0  0  0  0
    3.0158    2.5867    0.3426 C   0  0  0  0  0  0  0  0  0  0  0  0
    2.1192    1.5811   -0.0763 C   0  0  0  0  0  0  0  0  0  0  0  0
   -1.0638    3.6519   -0.6989 C   0  0  0  0  0  0  0  0  0  0  0  0
    2.5683    0.1867   -0.2539 C   0  0  0  0  0  0  0  0  0  0  0  0
    4.2155   -1.5577   -0.0841 C   0  0  0  0  0  0  0  0  0  0  0  0
    3.3056   -2.4600   -0.9349 C   0  0  0  0  0  0  0  0  0  0  0  0
    5.5850   -1.4009   -0.7775 C   0  0  0  0  0  0  0  0  0  0  0  0
    4.4181   -2.1781    1.3142 C   0  0  0  0  0  0  0  0  0  0  0  0
    0.9649    5.3216    0.1354 H   0  0  0  0  0  0  0  0  0  0  0  0
    3.3090    4.6963    0.7554 H   0  0  0  0  0  0  0  0  0  0  0  0
    4.0452    2.2746    0.5733 H   0  0  0  0  0  0  0  0  0  0  0  0
   -1.7971    3.2390    0.0253 H   0  0  0  0  0  0  0  0  0  0  0  0
   -1.2062    4.7482   -0.7392 H   0  0  0  0  0  0  0  0  0  0  0  0
   -1.3402    3.2163   -1.6799 H   0  0  0  0  0  0  0  0  0  0  0  0
    1.8479   -0.4837   -0.7718 H   0  0  0  0  0  0  0  0  0  0  0  0
    3.7731   -3.4566   -1.0609 H   0  0  0  0  0  0  0  0  0  0  0  0
    2.3107   -2.6126   -0.4726 H   0  0  0  0  0  0  0  0  0  0  0  0
    3.1393   -2.0349   -1.9453 H   0  0  0  0  0  0  0  0  0  0  0  0
    6.2452   -0.7440   -0.1782 H   0  0  0  0  0  0  0  0  0  0  0  0
    6.0762   -2.3870   -0.9032 H   0  0  0  0  0  0  0  0  0  0  0  0
    5.4619   -0.9420   -1.7791 H   0  0  0  0  0  0  0  0  0  0  0  0
    5.0466   -1.5155    1.9409 H   0  0  0  0  0  0  0  0  0  0  0  0
    3.4442   -2.3145    1.8265 H   0  0  0  0  0  0  0  0  0  0  0  0
    4.9102   -3.1685    1.2349 H   0  0  0  0  0  0  0  0  0  0  0  0
  1  3  1  0  0  0  0
  3  4  2  0  0  0  0
  3  8  1  0  0  0  0
  4  5  1  0  0  0  0
  5 15  1  0  0  0  0
  5  6  2  0  0  0  0
  6 16  1  0  0  0  0
  7  6  1  0  0  0  0
  7 17  1  0  0  0  0
  8  7  2  0  0  0  0
  9  4  1  0  0  0  0
  9 18  1  0  0  0  0
 10  8  1  0  0  0  0
 10  2  2  0  0  0  0
 11  2  1  0  0  0  0
 11 14  1  0  0  0  0
 12 23  1  0  0  0  0
 12 11  1  0  0  0  0
 13 25  1  0  0  0  0
 13 11  1  0  0  0  0
 14 29  1  0  0  0  0
 14 28  1  0  0  0  0
 19  9  1  0  0  0  0
 20  9  1  0  0  0  0
 21 10  1  0  0  0  0
 22 12  1  0  0  0  0
 24 12  1  0  0  0  0
 26 13  1  0  0  0  0
 27 13  1  0  0  0  0
 30 14  1  0  0  0  0
M  CHG  1   1  -1
M  END
