4
 OpenBabel05122313063D

 20 20  0  0  0  0  0  0  0  0999 V2000
   -0.0257    2.3680    2.3003 S   0  0  0  0  0  0  0  0  0  0  0  0
    3.7270   -0.1785   -0.7138 S   0  0  0  0  0  0  0  0  0  0  0  0
    0.1298    1.3226    3.3565 O   0  0  0  0  0  1  0  0  0  0  0  0
   -1.0062    1.8794    1.1825 O   0  0  0  0  0  1  0  0  0  0  0  0
   -0.3868    3.7375    2.7277 O   0  0  0  0  0  1  0  0  0  0  0  0
    2.6705   -0.2952   -1.8145 O   0  0  0  0  0  1  0  0  0  0  0  0
    3.6615   -1.2997    0.2633 O   0  0  0  0  0  1  0  0  0  0  0  0
    5.0938    0.1113   -1.2857 O   0  0  0  0  0  1  0  0  0  0  0  0
    4.6724    2.6686   -1.3428 O   0  0  0  0  0  0  0  0  0  0  0  0
    5.0192    1.7191   -1.4766 H   0  0  0  0  0  0  0  0  0  0  0  0
    3.4962    4.9412   -0.5346 O   0  0  0  0  0  0  0  0  0  0  0  0
    2.9663    5.6668   -0.1552 H   0  0  0  0  0  0  0  0  0  0  0  0
    3.2456    1.3515    0.1143 C   0  0  0  0  0  0  0  0  0  0  0  0
    3.6916    2.5767   -0.4435 C   0  0  0  0  0  0  0  0  0  0  0  0
    3.0329    3.7738   -0.0135 C   0  0  0  0  0  0  0  0  0  0  0  0
    1.9415    3.7023    0.8646 C   0  0  0  0  0  0  0  0  0  0  0  0
    1.3863    4.6091    1.1555 H   0  0  0  0  0  0  0  0  0  0  0  0
    1.5419    2.4669    1.4091 C   0  0  0  0  0  0  0  0  0  0  0  0
    2.2185    1.2936    1.0676 C   0  0  0  0  0  0  0  0  0  0  0  0
    1.9332    0.3203    1.4848 H   0  0  0  0  0  0  0  0  0  0  0  0
  1  5  1  0  0  0  0
  1  3  1  0  0  0  0
  2 13  1  0  0  0  0
  2  7  1  0  0  0  0
  4  1  1  0  0  0  0
  6  2  1  0  0  0  0
  8  2  1  0  0  0  0
  9 14  1  0  0  0  0
 10  9  1  0  0  0  0
 11 12  1  0  0  0  0
 11 15  1  0  0  0  0
 13 19  1  0  0  0  0
 14 15  1  0  0  0  0
 14 13  2  0  0  0  0
 15 16  2  0  0  0  0
 16 17  1  0  0  0  0
 16 18  1  0  0  0  0
 18  1  1  0  0  0  0
 19 18  2  0  0  0  0
 19 20  1  0  0  0  0
M  END
