1
 OpenBabel05122313063D

 18 18  0  0  0  0  0  0  0  0999 V2000
    1.2522    0.2016   -1.0368 O   0  5  0  0  0  0  0  0  0  0  0  0
    4.2555    0.8394   -0.9761 O   0  0  0  0  0  0  0  0  0  0  0  0
   -0.3630   -1.8164   -0.6492 O   0  0  0  0  0  0  0  0  0  0  0  0
    3.1145   -1.2291   -1.6273 C   0  0  0  0  0  0  0  0  0  0  0  0
    1.7440   -0.9742   -1.2516 C   0  0  0  0  0  0  0  0  0  0  0  0
    0.8886   -2.1368   -1.1194 C   0  0  0  0  0  0  0  0  0  0  0  0
    1.3174   -3.4183   -1.4460 C   0  0  0  0  0  0  0  0  0  0  0  0
    0.6345   -4.2749   -1.3552 H   0  0  0  0  0  0  0  0  0  0  0  0
    2.6392   -3.6233   -1.9206 C   0  0  0  0  0  0  0  0  0  0  0  0
    2.9643   -4.6352   -2.2014 H   0  0  0  0  0  0  0  0  0  0  0  0
    3.5084   -2.5469   -2.0105 C   0  0  0  0  0  0  0  0  0  0  0  0
    4.5477   -2.6993   -2.3450 H   0  0  0  0  0  0  0  0  0  0  0  0
    4.1898   -0.2449   -1.5759 C   0  0  0  0  0  0  0  0  0  0  0  0
    5.1100   -0.5881   -2.1350 H   0  0  0  0  0  0  0  0  0  0  0  0
   -1.2721   -2.8663   -0.3494 C   0  0  0  0  0  0  0  0  0  0  0  0
   -1.5486   -3.4278   -1.2675 H   0  0  0  0  0  0  0  0  0  0  0  0
   -2.1704   -2.3865    0.0766 H   0  0  0  0  0  0  0  0  0  0  0  0
   -0.8355   -3.5719    0.3916 H   0  0  0  0  0  0  0  0  0  0  0  0
  3 15  1  0  0  0  0
  4 13  1  0  0  0  0
  4  5  1  0  0  0  0
  5  6  2  0  0  0  0
  5  1  1  0  0  0  0
  6  3  1  0  0  0  0
  7  8  1  0  0  0  0
  7  6  1  0  0  0  0
  9  7  2  0  0  0  0
 10  9  1  0  0  0  0
 11  9  1  0  0  0  0
 11  4  2  0  0  0  0
 12 11  1  0  0  0  0
 13  2  2  0  0  0  0
 14 13  1  0  0  0  0
 15 17  1  0  0  0  0
 15 18  1  0  0  0  0
 16 15  1  0  0  0  0
M  CHG  1   1  -1
M  END
