1
 OpenBabel05122313063D

 10  9  0  0  0  0  0  0  0  0999 V2000
   -1.2923   -1.1488   -0.4061 O   0  0  0  0  0  1  0  0  0  0  0  0
   -2.0441    0.0196   -0.6254 N   0  0  0  0  0  0  0  0  0  0  0  0
   -2.2687    0.1088   -1.6312 H   0  0  0  0  0  0  0  0  0  0  0  0
   -3.2138    0.1622    0.2512 C   0  0  0  0  0  0  0  0  0  0  0  0
   -3.6517    1.1525    0.0048 H   0  0  0  0  0  0  0  0  0  0  0  0
   -2.8210    0.2338    1.2861 H   0  0  0  0  0  0  0  0  0  0  0  0
   -4.2236   -0.9677    0.0965 C   0  0  0  0  0  0  0  0  0  0  0  0
   -5.0656   -0.8293    0.8030 H   0  0  0  0  0  0  0  0  0  0  0  0
   -3.7440   -1.9421    0.3129 H   0  0  0  0  0  0  0  0  0  0  0  0
   -4.6438   -1.0053   -0.9299 H   0  0  0  0  0  0  0  0  0  0  0  0
  2  1  1  0  0  0  0
  2  4  1  0  0  0  0
  3  2  1  0  0  0  0
  4  6  1  0  0  0  0
  5  4  1  0  0  0  0
  7  4  1  0  0  0  0
  7  9  1  0  0  0  0
  7  8  1  0  0  0  0
 10  7  1  0  0  0  0
M  END
