3
 OpenBabel05122313063D

 18 18  0  0  1  0  0  0  0  0999 V2000
    1.3529    1.4942   -1.7179 O   0  0  0  0  0  0  0  0  0  0  0  0
    1.6733    1.8636   -2.5615 H   0  0  0  0  0  0  0  0  0  0  0  0
    0.2878    1.4901    0.8166 O   0  5  0  0  0  0  0  0  0  0  0  0
    1.8473    2.8882    1.5271 O   0  0  0  0  0  0  0  0  0  0  0  0
    1.3993    2.1557    0.6452 C   0  0  0  0  0  0  0  0  0  0  0  0
    2.1825    2.0271   -0.6812 C   0  0  1  0  0  0  0  0  0  0  0  0
    2.4564    3.0791   -0.9223 H   0  0  0  0  0  0  0  0  0  0  0  0
    3.4822    1.2356   -0.4921 C   0  0  0  0  0  0  0  0  0  0  0  0
    4.3308    1.4834    0.6082 C   0  0  0  0  0  0  0  0  0  0  0  0
    4.0349    2.2395    1.3498 H   0  0  0  0  0  0  0  0  0  0  0  0
    5.5335    0.7769    0.7484 C   0  0  0  0  0  0  0  0  0  0  0  0
    6.1849    0.9833    1.6112 H   0  0  0  0  0  0  0  0  0  0  0  0
    5.9175   -0.1751   -0.2108 C   0  0  0  0  0  0  0  0  0  0  0  0
    6.8694   -0.7169   -0.1052 H   0  0  0  0  0  0  0  0  0  0  0  0
    5.0849   -0.4157   -1.3129 C   0  0  0  0  0  0  0  0  0  0  0  0
    5.3795   -1.1501   -2.0783 H   0  0  0  0  0  0  0  0  0  0  0  0
    3.8743    0.2828   -1.4493 C   0  0  0  0  0  0  0  0  0  0  0  0
    3.2246    0.0871   -2.3146 H   0  0  0  0  0  0  0  0  0  0  0  0
  1  6  1  0  0  0  0
  2  1  1  0  0  0  0
  5  3  1  0  0  0  0
  5  4  2  0  0  0  0
  6  7  1  6  0  0  0
  6  8  1  0  0  0  0
  6  5  1  0  0  0  0
  8  9  1  0  0  0  0
  9 11  2  0  0  0  0
  9 10  1  0  0  0  0
 11 12  1  0  0  0  0
 13 14  1  0  0  0  0
 13 11  1  0  0  0  0
 15 13  2  0  0  0  0
 16 15  1  0  0  0  0
 17 15  1  0  0  0  0
 17  8  2  0  0  0  0
 18 17  1  0  0  0  0
M  CHG  1   3  -1
M  END
