2
 OpenBabel05122313063D

 14 14  0  0  0  0  0  0  0  0999 V2000
   -2.2282   -1.4160   -0.8600 S   0  0  0  0  0  0  0  0  0  0  0  0
   -0.8586   -1.0510   -1.5213 O   0  0  0  0  0  1  0  0  0  0  0  0
   -3.2970   -1.5742   -1.8592 O   0  0  0  0  0  1  0  0  0  0  0  0
   -2.1076   -2.4518    0.2044 O   0  0  0  0  0  1  0  0  0  0  0  0
   -1.4089    0.7610    0.4615 N   0  0  0  0  0  0  0  0  0  0  0  0
   -2.5245    0.1323    0.0381 C   0  0  0  0  0  0  0  0  0  0  0  0
   -2.7900    2.4383    1.4811 C   0  0  0  0  0  0  0  0  0  0  0  0
   -2.8482    3.3730    2.0561 H   0  0  0  0  0  0  0  0  0  0  0  0
   -1.5341    1.9076    1.1686 C   0  0  0  0  0  0  0  0  0  0  0  0
   -0.5954    2.4122    1.4315 H   0  0  0  0  0  0  0  0  0  0  0  0
   -3.9486    1.7836    1.0331 C   0  0  0  0  0  0  0  0  0  0  0  0
   -4.9454    2.1930    1.2557 H   0  0  0  0  0  0  0  0  0  0  0  0
   -3.8141    0.6071    0.2855 C   0  0  0  0  0  0  0  0  0  0  0  0
   -4.6712    0.0513   -0.1204 H   0  0  0  0  0  0  0  0  0  0  0  0
  1  6  1  0  0  0  0
  1  4  1  0  0  0  0
  2  1  1  0  0  0  0
  3  1  1  0  0  0  0
  5  9  1  0  0  0  0
  6 13  1  0  0  0  0
  6  5  2  0  0  0  0
  7  8  1  0  0  0  0
  9 10  1  0  0  0  0
  9  7  2  0  0  0  0
 11 12  1  0  0  0  0
 11  7  1  0  0  0  0
 13 11  2  0  0  0  0
 14 13  1  0  0  0  0
M  END
