2
 OpenBabel05122313063D

  8  7  0  0  1  0  0  0  0  0999 V2000
   -0.9339   -1.1467    2.7685 O   0  0  0  0  0  0  0  0  0  0  0  0
    1.2768   -0.7784    2.4238 O   0  0  0  0  0  1  0  0  0  0  0  0
    0.2617   -0.8300    3.1634 C   0  0  1  0  0  3  0  0  0  0  0  0
    0.3852   -0.4743    4.6231 C   0  0  0  0  0  0  0  0  0  0  0  0
    0.1880    0.6124    4.7332 H   0  0  0  0  0  0  0  0  0  0  0  0
    1.4125   -0.6710    4.9779 H   0  0  0  0  0  0  0  0  0  0  0  0
   -0.3605   -1.0196    5.2295 H   0  0  0  0  0  0  0  0  0  0  0  0
   -0.9235   -1.4216    1.7280 H   0  0  0  0  0  0  0  0  0  0  0  0
  1  3  1  0  0  0  0
  3  2  1  6  0  0  0
  3  4  1  0  0  0  0
  4  5  1  0  0  0  0
  4  6  1  0  0  0  0
  4  7  1  0  0  0  0
  8  1  1  0  0  0  0
M  END
