1
 OpenBabel05122313063D

 36 39  0  0  1  0  0  0  0  0999 V2000
   -0.5301    1.8472    0.0293 O   0  0  0  0  0  1  0  0  0  0  0  0
    1.7669    2.0909   -0.0272 N   0  0  0  0  0  0  0  0  0  0  0  0
    2.5270    2.7664   -0.1022 H   0  0  0  0  0  0  0  0  0  0  0  0
    0.3475    3.9466    0.0735 N   0  0  0  0  0  0  0  0  0  0  0  0
    0.5259    2.5791    0.0199 C   0  0  2  0  0  3  0  0  0  0  0  0
    1.4867    4.8460    0.0892 C   0  0  0  0  0  0  0  0  0  0  0  0
    2.2385    4.5237    0.8390 H   0  0  0  0  0  0  0  0  0  0  0  0
    1.1431    5.8550    0.3846 H   0  0  0  0  0  0  0  0  0  0  0  0
    1.9875    4.9327   -0.9032 H   0  0  0  0  0  0  0  0  0  0  0  0
   -0.9665    4.5309   -0.1161 C   0  0  0  0  0  0  0  0  0  0  0  0
   -1.0540    5.0357   -1.1053 H   0  0  0  0  0  0  0  0  0  0  0  0
   -1.1772    5.2821    0.6744 H   0  0  0  0  0  0  0  0  0  0  0  0
   -1.7248    3.7328   -0.0588 H   0  0  0  0  0  0  0  0  0  0  0  0
    2.2249    0.6482   -0.0090 B   0  0  2  0  0  0  0  0  0  0  0  0
    1.3773   -0.6513   -0.8692 B   0  0  2  0  0  0  0  0  0  0  0  0
    0.3144   -0.3397   -1.5199 H   0  0  0  0  0  0  0  0  0  0  0  0
    1.3786   -0.6437    0.8619 B   0  0  1  0  0  0  0  0  0  0  0  0
    0.3204   -0.3376    1.5159 H   0  0  0  0  0  0  0  0  0  0  0  0
    2.9484   -0.0606    1.4588 B   0  0  0  0  0  2  0  0  0  0  0  0
    3.0418    0.5929    2.4776 H   0  0  0  0  0  0  0  0  0  0  0  0
    3.9358    0.2814   -0.0088 B   0  0  1  0  0  0  0  0  0  0  0  0
    4.7476    1.1882   -0.0140 H   0  0  0  0  0  0  0  0  0  0  0  0
    2.9449   -0.0714   -1.4722 B   0  0  0  0  0  0  0  0  0  0  0  0
    3.0368    0.5768   -2.4947 H   0  0  0  0  0  0  0  0  0  0  0  0
    2.5548   -1.8440   -1.4616 B   0  0  0  0  0  2  0  0  0  0  0  0
    2.3889   -2.4593   -2.4952 H   0  0  0  0  0  0  0  0  0  0  0  0
    1.6074   -2.2024   -0.0001 B   0  0  2  0  0  0  0  0  0  0  0  0
    0.7552   -3.0596    0.0082 H   0  0  0  0  0  0  0  0  0  0  0  0
    2.5562   -1.8333    1.4591 B   0  0  0  0  0  0  0  0  0  0  0  0
    2.3916   -2.4429    2.4967 H   0  0  0  0  0  0  0  0  0  0  0  0
    4.1527   -1.2464    0.8949 B   0  0  2  0  0  0  0  0  0  0  0  0
    5.1563   -1.4595    1.5433 H   0  0  0  0  0  0  0  0  0  0  0  0
    4.1516   -1.2523   -0.9033 B   0  0  2  0  0  0  0  0  0  0  0  0
    5.1551   -1.4675   -1.5511 H   0  0  0  0  0  0  0  0  0  0  0  0
    3.3326   -2.5559    0.0006 B   0  0  2  0  0  0  0  0  0  0  0  0
    3.7362   -3.6996    0.0050 H   0  0  0  0  0  0  0  0  0  0  0  0
  2  5  1  0  0  0  0
  3  2  1  0  0  0  0
  4  6  1  0  0  0  0
  5  1  1  1  0  0  0
  5  4  1  0  0  0  0
  6  8  1  0  0  0  0
  6  7  1  0  0  0  0
  9  6  1  0  0  0  0
 10 13  1  0  0  0  0
 10  4  1  0  0  0  0
 10 12  1  0  0  0  0
 11 10  1  0  0  0  0
 14  2  1  6  0  0  0
 14 21  1  0  0  0  0
 14 17  1  0  0  0  0
 15 16  1  6  0  0  0
 15 14  1  0  0  0  0
 15 17  1  0  0  0  0
 17 29  1  0  0  0  0
 17 18  1  1  0  0  0
 19 20  1  0  0  0  0
 21 22  1  6  0  0  0
 21 31  1  0  0  0  0
 23 33  1  0  0  0  0
 23 15  1  0  0  0  0
 24 23  1  0  0  0  0
 25 27  1  0  0  0  0
 26 25  1  0  0  0  0
 27 35  1  0  0  0  0
 27 28  1  1  0  0  0
 27 29  1  0  0  0  0
 29 30  1  0  0  0  0
 31 19  1  0  0  0  0
 31 32  1  1  0  0  0
 33 34  1  6  0  0  0
 33 21  1  0  0  0  0
 33 35  1  0  0  0  0
 35 36  1  1  0  0  0
 35 31  1  0  0  0  0
M  END
