1
 OpenBabel05122313063D

 27 28  0  0  1  0  0  0  0  0999 V2000
   -1.7748    0.1108    0.0939 O   0  0  0  0  0  1  0  0  0  0  0  0
   -2.3772    0.5209    1.2273 C   0  0  2  0  0  0  0  0  0  0  0  0
   -3.8059    0.9610    0.9146 N   0  0  0  0  0  0  0  0  0  0  0  0
   -3.8646    2.3145    0.7531 N   0  0  0  0  0  2  0  0  0  0  0  0
   -1.8451    1.8410    1.8553 C   0  0  0  0  0  0  0  0  0  0  0  0
   -1.9301    1.8392    2.9627 H   0  0  0  0  0  0  0  0  0  0  0  0
   -0.7802    2.0011    1.6023 H   0  0  0  0  0  0  0  0  0  0  0  0
   -2.7943    2.8410    1.2625 C   0  0  2  0  0  3  0  0  0  0  0  0
   -2.4082   -0.6322    2.2642 C   0  0  0  0  0  0  0  0  0  0  0  0
   -2.5830    4.3210    1.2831 C   0  0  0  0  0  0  0  0  0  0  0  0
   -4.5836    0.1817    0.0281 C   0  0  0  0  0  0  0  0  0  0  0  0
   -4.4646    0.2839   -1.3721 C   0  0  0  0  0  0  0  0  0  0  0  0
   -5.1867   -0.5554   -2.2312 C   0  0  0  0  0  0  0  0  0  0  0  0
   -6.0725   -1.5057   -1.6957 C   0  0  0  0  0  0  0  0  0  0  0  0
   -6.2217   -1.6145   -0.3026 C   0  0  0  0  0  0  0  0  0  0  0  0
   -5.4911   -0.7657    0.5463 C   0  0  0  0  0  0  0  0  0  0  0  0
   -3.5897    5.0039    0.7220 F   0  0  0  0  0  0  0  0  0  0  0  0
   -1.4324    4.6491    0.6122 F   0  0  0  0  0  0  0  0  0  0  0  0
   -2.4155    4.7711    2.5539 F   0  0  0  0  0  0  0  0  0  0  0  0
   -1.1343   -0.9231    2.6504 F   0  0  0  0  0  0  0  0  0  0  0  0
   -3.1074   -0.3319    3.3739 F   0  0  0  0  0  0  0  0  0  0  0  0
   -2.9257   -1.7628    1.7293 F   0  0  0  0  0  0  0  0  0  0  0  0
   -3.6247    1.1674   -1.9309 F   0  0  0  0  0  0  0  0  0  0  0  0
   -5.0064   -0.4750   -3.5560 F   0  0  0  0  0  0  0  0  0  0  0  0
   -6.7610   -2.3084   -2.5072 F   0  0  0  0  0  0  0  0  0  0  0  0
   -7.0722   -2.5092    0.2049 F   0  0  0  0  0  0  0  0  0  0  0  0
   -5.6560   -0.8838    1.8615 F   0  0  0  0  0  0  0  0  0  0  0  0
  2  1  1  6  0  0  0
  2  5  1  0  0  0  0
  2  9  1  0  0  0  0
  3  2  1  0  0  0  0
  4  3  1  0  0  0  0
  4  8  1  0  0  0  0
  5  6  1  0  0  0  0
  7  5  1  0  0  0  0
  8 10  1  1  0  0  0
  8  5  1  0  0  0  0
  9 20  1  0  0  0  0
  9 21  1  0  0  0  0
 10 19  1  0  0  0  0
 11 16  1  0  0  0  0
 11  3  1  0  0  0  0
 12 11  2  0  0  0  0
 13 14  2  0  0  0  0
 13 12  1  0  0  0  0
 14 15  1  0  0  0  0
 15 26  1  0  0  0  0
 15 16  2  0  0  0  0
 16 27  1  0  0  0  0
 17 10  1  0  0  0  0
 18 10  1  0  0  0  0
 22  9  1  0  0  0  0
 23 12  1  0  0  0  0
 24 13  1  0  0  0  0
 25 14  1  0  0  0  0
M  END
