5
 OpenBabel05122313063D

 27 28  0  0  0  0  0  0  0  0999 V2000
   -0.9871    0.8391    1.2061 O   0  0  0  0  0  0  0  0  0  0  0  0
   -1.5350    0.2185   -0.0547 P   0  0  0  0  0  0  0  0  0  0  0  0
   -2.5799    1.1937   -0.9053 O   0  0  0  0  0  0  0  0  0  0  0  0
   -2.5266   -1.0313    0.4229 O   0  0  0  0  0  0  0  0  0  0  0  0
   -0.5771   -0.2712   -1.1700 O   0  0  0  0  0  1  0  0  0  0  0  0
   -3.5832    1.9548   -0.3327 C   0  0  0  0  0  0  0  0  0  0  0  0
   -3.3792    2.7162    0.8331 C   0  0  0  0  0  0  0  0  0  0  0  0
   -2.4075    2.6569    1.3425 H   0  0  0  0  0  0  0  0  0  0  0  0
   -4.4298    3.5087    1.3198 C   0  0  0  0  0  0  0  0  0  0  0  0
   -4.2747    4.1025    2.2341 H   0  0  0  0  0  0  0  0  0  0  0  0
   -5.6667    3.5527    0.6563 C   0  0  0  0  0  0  0  0  0  0  0  0
   -6.4830    4.1795    1.0455 H   0  0  0  0  0  0  0  0  0  0  0  0
   -5.8551    2.7882   -0.5069 C   0  0  0  0  0  0  0  0  0  0  0  0
   -6.8216    2.8109   -1.0333 H   0  0  0  0  0  0  0  0  0  0  0  0
   -4.8184    1.9850   -1.0024 C   0  0  0  0  0  0  0  0  0  0  0  0
   -4.9434    1.3711   -1.9060 H   0  0  0  0  0  0  0  0  0  0  0  0
   -3.1239   -1.9703   -0.3857 C   0  0  0  0  0  0  0  0  0  0  0  0
   -3.8085   -3.0031    0.2846 C   0  0  0  0  0  0  0  0  0  0  0  0
   -3.8309   -2.9845    1.3838 H   0  0  0  0  0  0  0  0  0  0  0  0
   -4.4424   -4.0136   -0.4500 C   0  0  0  0  0  0  0  0  0  0  0  0
   -4.9788   -4.8145    0.0820 H   0  0  0  0  0  0  0  0  0  0  0  0
   -4.3985   -4.0048   -1.8544 C   0  0  0  0  0  0  0  0  0  0  0  0
   -4.8958   -4.7985   -2.4313 H   0  0  0  0  0  0  0  0  0  0  0  0
   -3.7140   -2.9719   -2.5134 C   0  0  0  0  0  0  0  0  0  0  0  0
   -3.6708   -2.9547   -3.6133 H   0  0  0  0  0  0  0  0  0  0  0  0
   -3.0740   -1.9506   -1.7932 C   0  0  0  0  0  0  0  0  0  0  0  0
   -2.5234   -1.1553   -2.3122 H   0  0  0  0  0  0  0  0  0  0  0  0
  2  4  1  0  0  0  0
  2  1  2  0  0  0  0
  3  6  1  0  0  0  0
  3  2  1  0  0  0  0
  5  2  1  0  0  0  0
  6  7  1  0  0  0  0
  7  9  2  0  0  0  0
  7  8  1  0  0  0  0
  9 10  1  0  0  0  0
 11 12  1  0  0  0  0
 11  9  1  0  0  0  0
 13 11  2  0  0  0  0
 14 13  1  0  0  0  0
 15 13  1  0  0  0  0
 15  6  2  0  0  0  0
 16 15  1  0  0  0  0
 17 18  1  0  0  0  0
 17  4  1  0  0  0  0
 18 19  1  0  0  0  0
 20 21  1  0  0  0  0
 20 18  2  0  0  0  0
 22 20  1  0  0  0  0
 23 22  1  0  0  0  0
 24 22  2  0  0  0  0
 24 26  1  0  0  0  0
 25 24  1  0  0  0  0
 26 17  2  0  0  0  0
 27 26  1  0  0  0  0
M  END
