11
 OpenBabel05122313063D

 25 26  0  0  1  0  0  0  0  0999 V2000
   -4.2902   -2.0398    0.7895 N   0  0  0  0  0  0  0  0  0  0  0  0
   -5.5926   -2.6659    0.5743 C   0  0  0  0  0  0  0  0  0  0  0  0
   -5.9451   -2.4716   -0.4569 H   0  0  0  0  0  0  0  0  0  0  0  0
   -6.3377   -2.2468    1.2769 H   0  0  0  0  0  0  0  0  0  0  0  0
   -5.4629   -3.7487    0.7407 H   0  0  0  0  0  0  0  0  0  0  0  0
   -3.1823   -2.8752    1.0424 C   0  0  0  0  0  0  0  0  0  0  0  0
   -3.2689   -4.0884    1.1250 O   0  0  0  0  0  0  0  0  0  0  0  0
   -1.9558   -2.2080    1.1780 N   0  0  0  0  0  0  0  0  0  0  0  0
   -1.1034   -2.8236    1.1823 H   0  0  0  0  0  0  0  0  0  0  0  0
   -1.7190   -0.8583    1.1020 C   0  0  1  0  0  3  0  0  0  0  0  0
   -0.5619   -0.3920    1.1511 O   0  0  0  0  0  1  0  0  0  0  0  0
   -2.9158   -0.0338    0.8871 C   0  0  0  0  0  0  0  0  0  0  0  0
   -2.7855    1.2985    0.8009 N   0  0  0  0  0  0  0  0  0  0  0  0
   -3.8533    2.0211    0.4556 C   0  0  0  0  0  0  0  0  0  0  0  0
   -3.6772    3.5034    0.2968 C   0  0  0  0  0  0  0  0  0  0  0  0
   -2.7400    3.8190    0.7903 H   0  0  0  0  0  0  0  0  0  0  0  0
   -4.5263    4.0816    0.7110 H   0  0  0  0  0  0  0  0  0  0  0  0
   -3.5888    3.7476   -0.7837 H   0  0  0  0  0  0  0  0  0  0  0  0
   -5.1023    1.3689    0.1735 C   0  0  0  0  0  0  0  0  0  0  0  0
   -6.2844    2.1474   -0.3214 C   0  0  0  0  0  0  0  0  0  0  0  0
   -7.1423    1.4692   -0.4756 H   0  0  0  0  0  0  0  0  0  0  0  0
   -6.0355    2.6443   -1.2828 H   0  0  0  0  0  0  0  0  0  0  0  0
   -6.5730    2.9502    0.3882 H   0  0  0  0  0  0  0  0  0  0  0  0
   -5.2446    0.0458    0.3088 N   0  0  0  0  0  0  0  0  0  0  0  0
   -4.1617   -0.6673    0.6650 C   0  0  0  0  0  0  0  0  0  0  0  0
  1  6  1  0  0  0  0
  2  5  1  0  0  0  0
  2  1  1  0  0  0  0
  2  4  1  0  0  0  0
  3  2  1  0  0  0  0
  6  7  2  0  0  0  0
  6  8  1  0  0  0  0
  8  9  1  0  0  0  0
 10 11  1  6  0  0  0
 10  8  1  0  0  0  0
 12 10  1  0  0  0  0
 13 12  1  0  0  0  0
 14 13  2  0  0  0  0
 15 14  1  0  0  0  0
 15 17  1  0  0  0  0
 15 16  1  0  0  0  0
 18 15  1  0  0  0  0
 19 24  2  0  0  0  0
 19 14  1  0  0  0  0
 20 19  1  0  0  0  0
 20 23  1  0  0  0  0
 21 20  1  0  0  0  0
 22 20  1  0  0  0  0
 24 25  1  0  0  0  0
 25  1  1  0  0  0  0
 25 12  2  0  0  0  0
M  END
