1
 OpenBabel05122313063D

 21 22  0  0  1  0  0  0  0  0999 V2000
    1.9576   -1.0371   -0.4655 O   0  0  0  0  0  1  0  0  0  0  0  0
    2.8466   -0.7675    0.4673 N   0  0  0  0  0  0  0  0  0  0  0  0
    5.0945   -0.0959    1.0892 C   0  0  0  0  0  0  0  0  0  0  0  0
    4.1375   -0.3981    0.0504 C   0  0  2  0  0  3  0  0  0  0  0  0
    2.5136   -0.8472    1.7750 C   0  0  0  0  0  0  0  0  0  0  0  0
    1.4693   -1.1389    1.9556 H   0  0  0  0  0  0  0  0  0  0  0  0
    6.4108    0.3017    0.7257 C   0  0  0  0  0  0  0  0  0  0  0  0
    7.1318    0.5272    1.5248 H   0  0  0  0  0  0  0  0  0  0  0  0
    4.4991   -0.3080   -1.3365 C   0  0  0  0  0  0  0  0  0  0  0  0
    5.8124    0.0934   -1.6100 C   0  0  0  0  0  0  0  0  0  0  0  0
    6.1131    0.1695   -2.6658 H   0  0  0  0  0  0  0  0  0  0  0  0
    4.7201   -0.1881    2.4588 C   0  0  0  0  0  0  0  0  0  0  0  0
    5.4651    0.0449    3.2331 H   0  0  0  0  0  0  0  0  0  0  0  0
    6.7623    0.3970   -0.6084 C   0  0  0  0  0  0  0  0  0  0  0  0
    7.7779    0.7040   -0.8975 H   0  0  0  0  0  0  0  0  0  0  0  0
    3.4327   -0.5666    2.7959 C   0  0  0  0  0  0  0  0  0  0  0  0
    3.1032   -0.6528    3.8401 H   0  0  0  0  0  0  0  0  0  0  0  0
    3.5940   -0.6080   -2.5052 C   0  0  0  0  0  0  0  0  0  0  0  0
    3.2054   -1.6428   -2.4703 H   0  0  0  0  0  0  0  0  0  0  0  0
    4.1551   -0.4698   -3.4486 H   0  0  0  0  0  0  0  0  0  0  0  0
    2.7075    0.0542   -2.5156 H   0  0  0  0  0  0  0  0  0  0  0  0
  1  2  1  0  0  0  0
  2  5  1  0  0  0  0
  3 12  2  0  0  0  0
  4  9  1  6  0  0  0
  4  2  1  0  0  0  0
  4  3  1  0  0  0  0
  5  6  1  0  0  0  0
  5 16  2  0  0  0  0
  7  3  1  0  0  0  0
  7  8  1  0  0  0  0
 10  9  2  0  0  0  0
 10 14  1  0  0  0  0
 11 10  1  0  0  0  0
 12 16  1  0  0  0  0
 12 13  1  0  0  0  0
 14  7  2  0  0  0  0
 15 14  1  0  0  0  0
 16 17  1  0  0  0  0
 18 19  1  0  0  0  0
 18  9  1  0  0  0  0
 20 18  1  0  0  0  0
 21 18  1  0  0  0  0
M  END
