1
 OpenBabel05122313063D

 32 32  0  0  1  0  0  0  0  0999 V2000
   -0.3778    0.1733    0.0846 O   0  0  0  0  0  1  0  0  0  0  0  0
   -1.4838    0.6311   -0.3135 C   0  0  1  0  0  3  0  0  0  0  0  0
   -2.6622   -0.2324   -0.2005 C   0  0  0  0  0  0  0  0  0  0  0  0
   -3.9345    0.1494   -0.6908 C   0  0  0  0  0  0  0  0  0  0  0  0
   -4.0720    1.1239   -1.1777 H   0  0  0  0  0  0  0  0  0  0  0  0
   -5.0263   -0.7124   -0.5689 C   0  0  0  0  0  0  0  0  0  0  0  0
   -6.0088   -0.4030   -0.9570 H   0  0  0  0  0  0  0  0  0  0  0  0
   -4.8909   -1.9795    0.0391 C   0  0  0  0  0  0  0  0  0  0  0  0
   -3.6149   -2.3591    0.5208 C   0  0  0  0  0  0  0  0  0  0  0  0
   -3.4868   -3.3455    0.9929 H   0  0  0  0  0  0  0  0  0  0  0  0
   -2.5184   -1.5096    0.4049 C   0  0  0  0  0  0  0  0  0  0  0  0
   -1.5281   -1.8183    0.7727 H   0  0  0  0  0  0  0  0  0  0  0  0
   -6.0609   -2.9139    0.1674 C   0  0  0  0  0  0  0  0  0  0  0  0
   -6.9965   -2.4637   -0.2141 H   0  0  0  0  0  0  0  0  0  0  0  0
   -6.2206   -3.2056    1.2261 H   0  0  0  0  0  0  0  0  0  0  0  0
   -5.8762   -3.8541   -0.3936 H   0  0  0  0  0  0  0  0  0  0  0  0
   -1.5210    2.0213   -0.8691 C   0  0  0  0  0  0  0  0  0  0  0  0
   -2.3091    2.1059   -1.6422 H   0  0  0  0  0  0  0  0  0  0  0  0
   -0.5365    2.1898   -1.3501 H   0  0  0  0  0  0  0  0  0  0  0  0
   -1.7341    3.1720    0.1863 C   0  0  0  0  0  0  0  0  0  0  0  0
   -0.6862    3.0836    1.3071 C   0  0  0  0  0  0  0  0  0  0  0  0
   -0.7927    2.1611    1.9114 H   0  0  0  0  0  0  0  0  0  0  0  0
   -0.7988    3.9475    1.9931 H   0  0  0  0  0  0  0  0  0  0  0  0
    0.3442    3.0977    0.9017 H   0  0  0  0  0  0  0  0  0  0  0  0
   -3.1471    3.1168    0.7897 C   0  0  0  0  0  0  0  0  0  0  0  0
   -3.3282    2.1755    1.3465 H   0  0  0  0  0  0  0  0  0  0  0  0
   -3.9323    3.2143    0.0114 H   0  0  0  0  0  0  0  0  0  0  0  0
   -3.2836    3.9550    1.5028 H   0  0  0  0  0  0  0  0  0  0  0  0
   -1.5538    4.4943   -0.5811 C   0  0  0  0  0  0  0  0  0  0  0  0
   -2.2834    4.5861   -1.4120 H   0  0  0  0  0  0  0  0  0  0  0  0
   -0.5334    4.5709   -1.0078 H   0  0  0  0  0  0  0  0  0  0  0  0
   -1.7043    5.3568    0.0995 H   0  0  0  0  0  0  0  0  0  0  0  0
  2  3  1  0  0  0  0
  2  1  1  1  0  0  0
  3 11  1  0  0  0  0
  4  6  1  0  0  0  0
  4  3  2  0  0  0  0
  5  4  1  0  0  0  0
  6  8  2  0  0  0  0
  7  6  1  0  0  0  0
  8 13  1  0  0  0  0
  8  9  1  0  0  0  0
  9 10  1  0  0  0  0
 11  9  2  0  0  0  0
 11 12  1  0  0  0  0
 13 15  1  0  0  0  0
 14 13  1  0  0  0  0
 16 13  1  0  0  0  0
 17  2  1  0  0  0  0
 17 20  1  0  0  0  0
 18 17  1  0  0  0  0
 19 17  1  0  0  0  0
 20 25  1  0  0  0  0
 20 21  1  0  0  0  0
 21 22  1  0  0  0  0
 21 23  1  0  0  0  0
 24 21  1  0  0  0  0
 25 26  1  0  0  0  0
 25 28  1  0  0  0  0
 27 25  1  0  0  0  0
 29 32  1  0  0  0  0
 29 20  1  0  0  0  0
 30 29  1  0  0  0  0
 31 29  1  0  0  0  0
M  END
