7
 OpenBabel05122313063D

 16 16  0  0  0  0  0  0  0  0999 V2000
   -1.3690   -3.1723    0.3523 Cl  0  0  0  0  0  0  0  0  0  0  0  0
   -4.0981   -1.7687   -0.2612 Cl  0  0  0  0  0  0  0  0  0  0  0  0
   -4.2287    1.3591   -0.5600 Cl  0  0  0  0  0  0  0  0  0  0  0  0
   -1.6606    3.0912   -0.0914 Cl  0  0  0  0  0  0  0  0  0  0  0  0
    1.4322   -2.1755   -0.3605 O   0  5  0  0  0  0  0  0  0  0  0  0
    1.8386   -0.9959    1.5371 O   0  0  0  0  0  0  0  0  0  0  0  0
    1.7649    1.8893   -0.1499 O   0  5  0  0  0  0  0  0  0  0  0  0
    0.7629    2.2418    1.8494 O   0  0  0  0  0  0  0  0  0  0  0  0
   -0.2406   -0.6709    0.4051 C   0  0  0  0  0  0  0  0  0  0  0  0
   -1.4130   -1.4304    0.2168 C   0  0  0  0  0  0  0  0  0  0  0  0
   -2.6533   -0.8169   -0.0559 C   0  0  0  0  0  0  0  0  0  0  0  0
   -2.7166    0.5882   -0.1695 C   0  0  0  0  0  0  0  0  0  0  0  0
   -1.5520    1.3518    0.0491 C   0  0  0  0  0  0  0  0  0  0  0  0
   -0.3187    0.7474    0.3716 C   0  0  0  0  0  0  0  0  0  0  0  0
    1.1266   -1.3614    0.5721 C   0  0  0  0  0  0  0  0  0  0  0  0
    0.8516    1.6876    0.7570 C   0  0  0  0  0  0  0  0  0  0  0  0
  2 11  1  0  0  0  0
  3 12  1  0  0  0  0
  4 13  1  0  0  0  0
  5 15  1  0  0  0  0
  7 16  1  0  0  0  0
  9 15  1  0  0  0  0
 10  1  1  0  0  0  0
 10  9  2  0  0  0  0
 11 10  1  0  0  0  0
 12 11  2  0  0  0  0
 12 13  1  0  0  0  0
 13 14  2  0  0  0  0
 14  9  1  0  0  0  0
 14 16  1  0  0  0  0
 15  6  2  0  0  0  0
 16  8  2  0  0  0  0
M  CHG  2   5  -1   7  -1
M  END
