20
 OpenBabel05122313063D

 24 24  0  0  0  0  0  0  0  0999 V2000
   -0.6407    1.4413   -1.5269 C   0  0  0  0  0  0  0  0  0  0  0  0
    0.6162    2.0005   -2.2762 C   0  0  0  0  0  0  0  0  0  0  0  0
    0.9544    1.2421   -3.0035 H   0  0  0  0  0  0  0  0  0  0  0  0
    0.3353    2.9217   -2.8207 H   0  0  0  0  0  0  0  0  0  0  0  0
    1.7461    3.4858   -0.6945 C   0  0  0  0  0  3  0  0  0  0  0  0
    0.9362    4.1885   -0.9275 H   0  0  0  0  0  0  0  0  0  0  0  0
    2.7611    3.7542    0.2152 C   0  0  0  0  0  0  0  0  0  0  0  0
    2.7714    4.7203    0.7367 H   0  0  0  0  0  0  0  0  0  0  0  0
    3.7229    2.7740    0.4831 C   0  0  0  0  0  0  0  0  0  0  0  0
    4.5109    2.9571    1.2278 H   0  0  0  0  0  0  0  0  0  0  0  0
    2.6257    1.3241   -1.0997 C   0  0  0  0  0  0  0  0  0  0  0  0
    2.4654    0.3633   -1.6307 H   0  0  0  0  0  0  0  0  0  0  0  0
    3.6469    1.5179   -0.1549 C   0  0  0  0  0  0  0  0  0  0  0  0
    4.5632    0.4358    0.1946 C   0  0  0  0  0  0  0  0  0  0  0  0
    5.3924    0.6849    0.8784 H   0  0  0  0  0  0  0  0  0  0  0  0
    4.4609   -0.8521   -0.2134 C   0  0  0  0  0  0  0  0  0  0  0  0
    3.6461   -1.2151   -0.8625 H   0  0  0  0  0  0  0  0  0  0  0  0
    5.4618   -1.8400    0.2598 C   0  0  0  0  0  0  0  0  0  0  0  0
    1.7257    2.2993   -1.3613 N   0  0  0  0  0  0  0  0  0  0  0  0
   -0.6505    1.5710   -0.2668 O   0  5  0  0  0  0  0  0  0  0  0  0
   -1.4967    0.9381   -2.2815 O   0  0  0  0  0  0  0  0  0  0  0  0
    6.4332   -1.5952    0.9578 O   0  0  0  0  0  0  0  0  0  0  0  0
    5.1722   -3.0903   -0.1865 O   0  0  0  0  0  0  0  0  0  0  0  0
    5.8792   -3.6644    0.1802 H   0  0  0  0  0  0  0  0  0  0  0  0
  1 20  1  0  0  0  0
  2  1  1  0  0  0  0
  2 19  1  0  0  0  0
  3  2  1  0  0  0  0
  4  2  1  0  0  0  0
  5  7  1  0  0  0  0
  6  5  1  0  0  0  0
  7  9  2  0  0  0  0
  7  8  1  0  0  0  0
  9 10  1  0  0  0  0
 11 13  2  0  0  0  0
 12 11  1  0  0  0  0
 13 14  1  0  0  0  0
 13  9  1  0  0  0  0
 14 15  1  0  0  0  0
 16 14  2  0  0  0  0
 16 18  1  0  0  0  0
 17 16  1  0  0  0  0
 18 22  2  0  0  0  0
 19 11  1  0  0  0  0
 19  5  1  0  0  0  0
 21  1  2  0  0  0  0
 23 24  1  0  0  0  0
 23 18  1  0  0  0  0
M  CHG  1  20  -1
M  END
