3
 OpenBabel05122313063D

 19 21  0  0  1  0  0  0  0  0999 V2000
    1.4461    2.0599    0.0004 S   0  0  0  0  0  0  0  0  0  0  0  0
   -1.6098    2.7273    0.0006 S   0  0  0  0  0  0  0  0  0  0  0  0
    0.3347   -0.7091   -0.0011 O   0  0  0  0  0  1  0  0  0  0  0  0
   -2.6762   -1.0896   -0.0008 N   0  0  0  0  0  0  0  0  0  0  0  0
   -4.0238    1.4559    0.0004 N   0  0  0  0  0  0  0  0  0  0  0  0
   -0.2377    1.6098    0.0000 C   0  0  0  0  0  0  0  0  0  0  0  0
   -0.5844    0.2645   -0.0006 C   0  0  2  0  0  3  0  0  0  0  0  0
   -2.7220    1.3394    0.0002 C   0  0  0  0  0  0  0  0  0  0  0  0
   -2.0115    0.0655   -0.0005 C   0  0  0  0  0  0  0  0  0  0  0  0
   -4.7241    0.2764   -0.0000 C   0  0  0  0  0  0  0  0  0  0  0  0
   -6.1459    0.3056    0.0002 C   0  0  0  0  0  0  0  0  0  0  0  0
   -6.8728   -0.8773   -0.0001 C   0  0  0  0  0  0  0  0  0  0  0  0
   -6.2030   -2.1326   -0.0007 C   0  0  0  0  0  0  0  0  0  0  0  0
   -4.8174   -2.1951   -0.0009 C   0  0  0  0  0  0  0  0  0  0  0  0
   -4.0357   -1.0010   -0.0006 C   0  0  0  0  0  0  0  0  0  0  0  0
   -6.6338    1.2915    0.0006 H   0  0  0  0  0  0  0  0  0  0  0  0
   -7.9729   -0.8472    0.0000 H   0  0  0  0  0  0  0  0  0  0  0  0
   -6.7935   -3.0617   -0.0009 H   0  0  0  0  0  0  0  0  0  0  0  0
   -4.2755   -3.1524   -0.0013 H   0  0  0  0  0  0  0  0  0  0  0  0
  4 15  2  0  0  0  0
  4  9  1  0  0  0  0
  6  1  2  0  0  0  0
  6  2  1  0  0  0  0
  7  3  1  1  0  0  0
  7  9  1  0  0  0  0
  7  6  1  0  0  0  0
  8  5  1  0  0  0  0
  8  2  1  0  0  0  0
  9  8  2  0  0  0  0
 10 11  1  0  0  0  0
 10  5  2  0  0  0  0
 11 16  1  0  0  0  0
 12 17  1  0  0  0  0
 12 11  2  0  0  0  0
 13 12  1  0  0  0  0
 14 13  2  0  0  0  0
 14 15  1  0  0  0  0
 15 10  1  0  0  0  0
 18 13  1  0  0  0  0
 19 14  1  0  0  0  0
M  END
