16
 OpenBabel05122313063D

 26 28  0  0  1  0  0  0  0  0999 V2000
    2.5405   -0.1026   -2.5127 F   0  0  0  0  0  0  0  0  0  0  0  0
    1.0840   -1.0416   -1.2073 F   0  0  0  0  0  0  0  0  0  0  0  0
    3.0409   -2.8078   -2.1157 F   0  0  0  0  0  0  0  0  0  0  0  0
    3.8888   -3.6377    0.3881 F   0  0  0  0  0  0  0  0  0  0  0  0
    1.8243   -2.9609    0.3881 F   0  0  0  0  0  0  0  0  0  0  0  0
    3.2703   -2.0907    2.6019 F   0  0  0  0  0  0  0  0  0  0  0  0
    1.2132   -0.6353    1.4097 F   0  0  0  0  0  0  0  0  0  0  0  0
    2.7831    0.6121    2.2365 F   0  0  0  0  0  0  0  0  0  0  0  0
    5.6345   -2.4835   -1.1861 F   0  0  0  0  0  0  0  0  0  0  0  0
    5.0079   -0.8770   -2.5034 F   0  0  0  0  0  0  0  0  0  0  0  0
    6.4309    0.0204   -0.2913 F   0  0  0  0  0  0  0  0  0  0  0  0
    5.7592   -2.0985    1.3737 F   0  0  0  0  0  0  0  0  0  0  0  0
    5.2424   -0.1659    2.2135 F   0  0  0  0  0  0  0  0  0  0  0  0
    4.3909    1.4544   -1.5053 F   0  0  0  0  0  0  0  0  0  0  0  0
    4.4923    1.7794    0.6401 F   0  0  0  0  0  0  0  0  0  0  0  0
    1.8704    1.5038   -0.3074 O   0  0  0  0  0  0  0  0  0  0  0  0
    2.6678    0.4326   -0.1689 C   0  0  2  0  0  0  0  0  0  0  0  0
    2.3855   -0.6544   -1.2781 C   0  0  0  0  0  0  0  0  0  0  0  0
    3.3173   -1.8903   -1.1438 C   0  0  1  0  0  0  0  0  0  0  0  0
    3.1048   -2.5420    0.2594 C   0  0  0  0  0  0  0  0  0  0  0  0
    3.4415   -1.5073    1.3799 C   0  0  1  0  0  0  0  0  0  0  0  0
    2.5136   -0.2706    1.2337 C   0  0  0  0  0  0  0  0  0  0  0  0
    4.8009   -1.4203   -1.2813 C   0  0  0  0  0  0  0  0  0  0  0  0
    5.1308   -0.3762   -0.1672 C   0  0  1  0  0  0  0  0  0  0  0  0
    4.9256   -1.0414    1.2304 C   0  0  0  0  0  0  0  0  0  0  0  0
    4.1789    0.8548   -0.3058 C   0  0  0  0  0  0  0  0  0  0  0  0
  1 18  1  0  0  0  0
 10 23  1  0  0  0  0
 14 26  1  0  0  0  0
 17 16  1  6  0  0  0
 17 22  1  0  0  0  0
 18  2  1  0  0  0  0
 18 19  1  0  0  0  0
 18 17  1  0  0  0  0
 19  3  1  6  0  0  0
 19 20  1  0  0  0  0
 20  4  1  0  0  0  0
 20  5  1  0  0  0  0
 20 21  1  0  0  0  0
 21  6  1  1  0  0  0
 22 21  1  0  0  0  0
 22  7  1  0  0  0  0
 22  8  1  0  0  0  0
 23  9  1  0  0  0  0
 23 19  1  0  0  0  0
 23 24  1  0  0  0  0
 24 11  1  6  0  0  0
 24 25  1  0  0  0  0
 25 12  1  0  0  0  0
 25 21  1  0  0  0  0
 25 13  1  0  0  0  0
 26 17  1  0  0  0  0
 26 24  1  0  0  0  0
 26 15  1  0  0  0  0
M  END
