7
 OpenBabel05122313063D

 13 13  0  0  0  0  0  0  0  0999 V2000
    2.2262    1.8923    2.5525 Cl  0  0  0  0  0  0  0  0  0  0  0  0
    5.2106    1.1245    1.7087 Cl  0  0  0  0  0  0  0  0  0  0  0  0
    5.6747   -0.7536   -0.7928 Cl  0  0  0  0  0  0  0  0  0  0  0  0
    3.1715   -1.8458   -2.4007 Cl  0  0  0  0  0  0  0  0  0  0  0  0
    0.1706    0.6911    0.7815 O   0  0  0  0  0  0  0  0  0  0  0  0
    0.1817    1.2508    1.5896 H   0  0  0  0  0  0  0  0  0  0  0  0
    0.5871   -0.9272   -1.3219 O   0  5  0  0  0  0  0  0  0  0  0  0
    1.4529    0.3793    0.4659 C   0  0  0  0  0  0  0  0  0  0  0  0
    2.5557    0.8601    1.1861 C   0  0  0  0  0  0  0  0  0  0  0  0
    3.8707    0.5170    0.8072 C   0  0  0  0  0  0  0  0  0  0  0  0
    4.0709   -0.3242   -0.3139 C   0  0  0  0  0  0  0  0  0  0  0  0
    2.9608   -0.8141   -1.0372 C   0  0  0  0  0  0  0  0  0  0  0  0
    1.6345   -0.4726   -0.6571 C   0  0  0  0  0  0  0  0  0  0  0  0
  3 11  1  0  0  0  0
  4 12  1  0  0  0  0
  5  6  1  0  0  0  0
  7 13  1  0  0  0  0
  8  5  1  0  0  0  0
  8  9  1  0  0  0  0
  9  1  1  0  0  0  0
 10  9  2  0  0  0  0
 10  2  1  0  0  0  0
 11 10  1  0  0  0  0
 12 13  1  0  0  0  0
 12 11  2  0  0  0  0
 13  8  2  0  0  0  0
M  CHG  1   7  -1
M  END
