1
 OpenBabel05122313063D

 22 23  0  0  1  0  0  0  0  0999 V2000
   -1.5246    1.6315   -0.5044 O   0  5  0  0  0  0  0  0  0  0  0  0
   -0.9175    2.9445    1.2482 O   0  0  0  0  0  0  0  0  0  0  0  0
   -5.7631    1.0852   -1.2944 N   0  0  0  0  0  0  0  0  0  0  0  0
   -4.1660    1.9455    0.0721 N   0  0  0  0  0  0  0  0  0  0  0  0
   -4.7914   -2.0427    0.4967 N   0  0  0  0  0  0  0  0  0  0  0  0
   -3.1588   -2.2345    2.1287 N   0  0  0  0  0  0  0  0  0  0  0  0
   -2.2799   -1.8623    2.4963 H   0  0  0  0  0  0  0  0  0  0  0  0
   -3.1931   -3.2336    1.9317 H   0  0  0  0  0  0  0  0  0  0  0  0
   -3.5239   -0.1172    1.2522 N   0  0  0  0  0  2  0  0  0  0  0  0
   -3.2223    2.8878    0.6336 C   0  0  0  0  0  0  0  0  0  0  0  0
   -3.3906    3.0143    1.7223 H   0  0  0  0  0  0  0  0  0  0  0  0
   -3.3827    3.8762    0.1587 H   0  0  0  0  0  0  0  0  0  0  0  0
   -5.0965    2.1663   -0.9423 C   0  0  0  0  0  0  0  0  0  0  0  0
   -5.2246    3.1703   -1.3697 H   0  0  0  0  0  0  0  0  0  0  0  0
   -6.4387   -1.9057   -1.1431 N   0  0  0  0  0  0  0  0  0  0  0  0
   -6.6178   -2.9006   -1.0257 H   0  0  0  0  0  0  0  0  0  0  0  0
   -6.9894   -1.3443   -1.7888 H   0  0  0  0  0  0  0  0  0  0  0  0
   -1.7503    2.4579    0.4290 C   0  0  0  0  0  0  0  0  0  0  0  0
   -5.2397    0.0916   -0.4866 C   0  0  0  0  0  0  0  0  0  0  0  0
   -3.8466   -1.4406    1.2536 C   0  0  0  0  0  0  0  0  0  0  0  0
   -5.4992   -1.3041   -0.3752 C   0  0  2  0  0  3  0  0  0  0  0  0
   -4.2390    0.5984    0.3649 C   0  0  0  0  0  0  0  0  0  0  0  0
  1 18  1  0  0  0  0
  3 13  2  0  0  0  0
  3 19  1  0  0  0  0
  4 22  1  0  0  0  0
  4 10  1  0  0  0  0
  5 20  2  0  0  0  0
  6  7  1  0  0  0  0
  8  6  1  0  0  0  0
  9 20  1  0  0  0  0
 10 11  1  0  0  0  0
 12 10  1  0  0  0  0
 13  4  1  0  0  0  0
 14 13  1  0  0  0  0
 15 16  1  0  0  0  0
 17 15  1  0  0  0  0
 18 10  1  0  0  0  0
 18  2  2  0  0  0  0
 19 21  1  0  0  0  0
 19 22  2  0  0  0  0
 20  6  1  0  0  0  0
 21 15  1  6  0  0  0
 21  5  1  0  0  0  0
 22  9  1  0  0  0  0
M  CHG  1   1  -1
M  END
