1
 OpenBabel05122313063D

 12 12  0  0  0  0  0  0  0  0999 V2000
    1.1009   -1.7989    0.4799 O   0  5  0  0  0  0  0  0  0  0  0  0
    2.3478   -1.3816    0.3154 C   0  0  0  0  0  0  0  0  0  0  0  0
    2.7033   -0.0370    0.0011 C   0  0  0  0  0  0  0  0  0  0  0  0
    1.9154    0.7244   -0.0943 H   0  0  0  0  0  0  0  0  0  0  0  0
    4.0471    0.2963   -0.1884 C   0  0  0  0  0  0  0  0  0  0  0  0
    5.0930   -0.6299   -0.0624 C   0  0  0  0  0  0  0  0  0  0  0  0
    6.1406   -0.3459   -0.2161 H   0  0  0  0  0  0  0  0  0  0  0  0
    4.7231   -1.9460    0.2683 C   0  0  0  0  0  0  0  0  0  0  0  0
    3.3966   -2.3361    0.4554 C   0  0  0  0  0  0  0  0  0  0  0  0
    3.1318   -3.3721    0.7031 H   0  0  0  0  0  0  0  0  0  0  0  0
    4.4984    2.1015   -0.6604 Br  0  0  0  0  0  0  0  0  0  0  0  0
    6.1077   -3.2524    0.4591 Br  0  0  0  0  0  0  0  0  0  0  0  0
  2  9  1  0  0  0  0
  2  1  1  0  0  0  0
  3  2  2  0  0  0  0
  4  3  1  0  0  0  0
  5  6  2  0  0  0  0
  5  3  1  0  0  0  0
  6  8  1  0  0  0  0
  7  6  1  0  0  0  0
  8  9  2  0  0  0  0
  8 12  1  0  0  0  0
  9 10  1  0  0  0  0
 11  5  1  0  0  0  0
M  CHG  1   1  -1
M  END
