1
 OpenBabel05122313063D

 32 34  0  0  0  0  0  0  0  0999 V2000
    0.0156   -1.2825   -0.7944 O   0  5  0  0  0  0  0  0  0  0  0  0
   -0.0049   -1.9921   -1.9367 C   0  0  0  0  0  0  0  0  0  0  0  0
   -1.2419   -2.3728   -2.5221 C   0  0  0  0  0  0  0  0  0  0  0  0
   -1.2321   -3.1182   -3.7162 C   0  0  0  0  0  0  0  0  0  0  0  0
   -2.1927   -3.4157   -4.1620 H   0  0  0  0  0  0  0  0  0  0  0  0
   -0.0272   -3.4661   -4.3409 C   0  0  0  0  0  0  0  0  0  0  0  0
   -0.0384   -4.0318   -5.2836 H   0  0  0  0  0  0  0  0  0  0  0  0
    1.1922   -3.1098   -3.7483 C   0  0  0  0  0  0  0  0  0  0  0  0
    2.1444   -3.4063   -4.2123 H   0  0  0  0  0  0  0  0  0  0  0  0
    1.2179   -2.4003   -2.5359 C   0  0  0  0  0  0  0  0  0  0  0  0
   -2.5270   -2.0209   -1.8616 C   0  0  0  0  0  0  0  0  0  0  0  0
   -3.3824   -3.0250   -1.3658 C   0  0  0  0  0  0  0  0  0  0  0  0
   -4.6103   -2.7193   -0.7580 C   0  0  0  0  0  0  0  0  0  0  0  0
   -4.9936   -1.3757   -0.6024 C   0  0  0  0  0  0  0  0  0  0  0  0
   -4.1606   -0.3519   -1.0807 C   0  0  0  0  0  0  0  0  0  0  0  0
   -2.9584   -0.6925   -1.7158 C   0  0  0  0  0  0  0  0  0  0  0  0
    2.4861   -2.1095   -1.8242 C   0  0  0  0  0  0  0  0  0  0  0  0
    2.7081   -2.6558   -0.5447 C   0  0  0  0  0  0  0  0  0  0  0  0
    3.8681   -2.3701    0.1904 C   0  0  0  0  0  0  0  0  0  0  0  0
    4.8650   -1.5685   -0.3898 C   0  0  0  0  0  0  0  0  0  0  0  0
    4.6758   -1.0153   -1.6659 C   0  0  0  0  0  0  0  0  0  0  0  0
    3.4962   -1.2994   -2.3715 C   0  0  0  0  0  0  0  0  0  0  0  0
   -3.0215   -4.3117   -1.4494 F   0  0  0  0  0  0  0  0  0  0  0  0
   -5.3918   -3.6909   -0.2863 F   0  0  0  0  0  0  0  0  0  0  0  0
   -6.1334   -1.0758    0.0169 F   0  0  0  0  0  0  0  0  0  0  0  0
   -4.5142    0.9286   -0.9357 F   0  0  0  0  0  0  0  0  0  0  0  0
   -2.2032    0.3118   -2.2032 F   0  0  0  0  0  0  0  0  0  0  0  0
    1.7930   -3.4689   -0.0070 F   0  0  0  0  0  0  0  0  0  0  0  0
    4.0448   -2.8627    1.4179 F   0  0  0  0  0  0  0  0  0  0  0  0
    5.9820   -1.2986    0.2928 F   0  0  0  0  0  0  0  0  0  0  0  0
    5.6068   -0.2070   -2.1830 F   0  0  0  0  0  0  0  0  0  0  0  0
    3.3245   -0.7355   -3.5766 F   0  0  0  0  0  0  0  0  0  0  0  0
  2  1  1  0  0  0  0
  3  2  1  0  0  0  0
  3 11  1  0  0  0  0
  4  3  2  0  0  0  0
  5  4  1  0  0  0  0
  6  8  2  0  0  0  0
  6  4  1  0  0  0  0
  7  6  1  0  0  0  0
  8 10  1  0  0  0  0
  9  8  1  0  0  0  0
 10  2  2  0  0  0  0
 10 17  1  0  0  0  0
 11 16  2  0  0  0  0
 11 12  1  0  0  0  0
 12 13  2  0  0  0  0
 13 14  1  0  0  0  0
 13 24  1  0  0  0  0
 14 25  1  0  0  0  0
 15 26  1  0  0  0  0
 15 14  2  0  0  0  0
 16 15  1  0  0  0  0
 17 18  1  0  0  0  0
 18 28  1  0  0  0  0
 18 19  2  0  0  0  0
 19 29  1  0  0  0  0
 20 19  1  0  0  0  0
 20 30  1  0  0  0  0
 21 20  2  0  0  0  0
 22 17  2  0  0  0  0
 22 21  1  0  0  0  0
 23 12  1  0  0  0  0
 27 16  1  0  0  0  0
 31 21  1  0  0  0  0
 32 22  1  0  0  0  0
M  CHG  1   1  -1
M  END
