3
 OpenBabel05122313063D

 14 14  0  0  0  0  0  0  0  0999 V2000
   -2.1355    2.1974   -1.4580 Cl  0  0  0  0  0  0  0  0  0  0  0  0
   -3.1821   -2.9777    0.2000 Cl  0  0  0  0  0  0  0  0  0  0  0  0
   -0.4797   -0.1488   -1.7438 O   0  0  0  0  0  1  0  0  0  0  0  0
   -1.3434   -0.9264   -1.0332 C   0  0  0  0  0  3  0  0  0  0  0  0
   -1.4041   -1.9839   -1.3471 H   0  0  0  0  0  0  0  0  0  0  0  0
   -2.6342   -0.3827   -0.5360 C   0  0  0  0  0  0  0  0  0  0  0  0
   -3.0674    0.9684   -0.6255 C   0  0  0  0  0  0  0  0  0  0  0  0
   -4.2854    1.4050   -0.0795 C   0  0  0  0  0  0  0  0  0  0  0  0
   -4.5586    2.4641   -0.1844 H   0  0  0  0  0  0  0  0  0  0  0  0
   -5.1334    0.4974    0.5644 C   0  0  0  0  0  0  0  0  0  0  0  0
   -6.0862    0.8403    0.9935 H   0  0  0  0  0  0  0  0  0  0  0  0
   -4.7721   -0.8528    0.6407 C   0  0  0  0  0  0  0  0  0  0  0  0
   -5.4246   -1.5960    1.1185 H   0  0  0  0  0  0  0  0  0  0  0  0
   -3.5523   -1.2697    0.0937 C   0  0  0  0  0  0  0  0  0  0  0  0
  1  7  1  0  0  0  0
  3  4  1  0  0  0  0
  4  6  1  0  0  0  0
  5  4  1  0  0  0  0
  6 14  1  0  0  0  0
  7  6  2  0  0  0  0
  7  8  1  0  0  0  0
  8 10  2  0  0  0  0
  9  8  1  0  0  0  0
 10 12  1  0  0  0  0
 10 11  1  0  0  0  0
 12 13  1  0  0  0  0
 14  2  1  0  0  0  0
 14 12  2  0  0  0  0
M  END
