1
 OpenBabel05122313063D

 32 31  0  0  0  0  0  0  0  0999 V2000
   -0.3606    0.2180    0.5179 O   0  0  0  0  0  1  0  0  0  0  0  0
   -1.6008    0.0798    0.2091 C   0  0  0  0  0  3  0  0  0  0  0  0
   -2.1534   -1.1641    0.0729 N   0  0  0  0  0  0  0  0  0  0  0  0
   -1.5337   -2.2904    0.7983 C   0  0  0  0  0  0  0  0  0  0  0  0
   -0.4915   -2.4442    0.4523 H   0  0  0  0  0  0  0  0  0  0  0  0
   -2.1034   -3.1924    0.5025 H   0  0  0  0  0  0  0  0  0  0  0  0
   -1.5814   -2.1101    2.3102 C   0  0  0  0  0  0  0  0  0  0  0  0
   -0.9919   -1.2264    2.6244 H   0  0  0  0  0  0  0  0  0  0  0  0
   -1.1311   -2.9918    2.8065 H   0  0  0  0  0  0  0  0  0  0  0  0
   -2.6232   -1.9956    2.6731 H   0  0  0  0  0  0  0  0  0  0  0  0
   -2.9936   -1.5060   -1.0864 C   0  0  0  0  0  0  0  0  0  0  0  0
   -2.3972   -2.2033   -1.7160 H   0  0  0  0  0  0  0  0  0  0  0  0
   -3.1177   -0.5917   -1.6959 H   0  0  0  0  0  0  0  0  0  0  0  0
   -4.3439   -2.1321   -0.7510 C   0  0  0  0  0  0  0  0  0  0  0  0
   -4.2289   -3.0435   -0.1309 H   0  0  0  0  0  0  0  0  0  0  0  0
   -4.8584   -2.4326   -1.6853 H   0  0  0  0  0  0  0  0  0  0  0  0
   -5.0103   -1.4345   -0.2059 H   0  0  0  0  0  0  0  0  0  0  0  0
   -3.8134    1.2026    0.2955 C   0  0  0  0  0  0  0  0  0  0  0  0
   -4.0122    1.9174    1.1241 H   0  0  0  0  0  0  0  0  0  0  0  0
   -4.1046    0.2038    0.6699 H   0  0  0  0  0  0  0  0  0  0  0  0
   -4.6439    1.6029   -0.9227 C   0  0  0  0  0  0  0  0  0  0  0  0
   -4.3564    2.6040   -1.3011 H   0  0  0  0  0  0  0  0  0  0  0  0
   -5.7156    1.6489   -0.6449 H   0  0  0  0  0  0  0  0  0  0  0  0
   -4.5396    0.8835   -1.7580 H   0  0  0  0  0  0  0  0  0  0  0  0
   -1.6973    2.5140    0.1032 C   0  0  0  0  0  0  0  0  0  0  0  0
   -2.3667    3.2150   -0.4350 H   0  0  0  0  0  0  0  0  0  0  0  0
   -0.7689    2.4376   -0.4923 H   0  0  0  0  0  0  0  0  0  0  0  0
   -1.3910    3.0181    1.5121 C   0  0  0  0  0  0  0  0  0  0  0  0
   -2.3029    3.0914    2.1399 H   0  0  0  0  0  0  0  0  0  0  0  0
   -0.9416    4.0290    1.4543 H   0  0  0  0  0  0  0  0  0  0  0  0
   -0.6598    2.3546    2.0127 H   0  0  0  0  0  0  0  0  0  0  0  0
   -2.3620    1.1962    0.0834 N   0  0  0  0  0  0  0  0  0  0  0  0
  2  1  1  0  0  0  0
  3  2  1  0  0  0  0
  3  4  1  0  0  0  0
  4  7  1  0  0  0  0
  5  4  1  0  0  0  0
  6  4  1  0  0  0  0
  7  8  1  0  0  0  0
  7 10  1  0  0  0  0
  7  9  1  0  0  0  0
 11 14  1  0  0  0  0
 11  3  1  0  0  0  0
 12 11  1  0  0  0  0
 13 11  1  0  0  0  0
 14 17  1  0  0  0  0
 14 15  1  0  0  0  0
 16 14  1  0  0  0  0
 18 20  1  0  0  0  0
 18 19  1  0  0  0  0
 21 23  1  0  0  0  0
 21 18  1  0  0  0  0
 22 21  1  0  0  0  0
 24 21  1  0  0  0  0
 25 28  1  0  0  0  0
 26 25  1  0  0  0  0
 27 25  1  0  0  0  0
 28 31  1  0  0  0  0
 28 29  1  0  0  0  0
 30 28  1  0  0  0  0
 32 25  1  0  0  0  0
 32  2  1  0  0  0  0
 32 18  1  0  0  0  0
M  END
