6
 OpenBabel05122313063D

 11 11  0  0  1  0  0  0  0  0999 V2000
    1.4956    3.0035   -0.7428 C   0  0  0  0  0  0  0  0  0  0  0  0
    0.5063    3.3093    0.1483 C   0  0  0  0  0  0  0  0  0  0  0  0
    0.6282    2.4376    1.3080 C   0  0  0  0  0  0  0  0  0  0  0  0
    1.6490    1.5260    1.1300 C   0  0  0  0  0  0  0  0  0  0  0  0
    2.3624    1.9083   -0.1791 C   0  0  1  0  0  0  0  0  0  0  0  0
    2.5116    0.7945   -1.0395 O   0  0  0  0  0  1  0  0  0  0  0  0
    1.6500    3.4236   -1.7463 H   0  0  0  0  0  0  0  0  0  0  0  0
   -0.2633    4.0840    0.0280 H   0  0  0  0  0  0  0  0  0  0  0  0
    0.0271    2.5444    2.2239 H   0  0  0  0  0  0  0  0  0  0  0  0
    2.1197    0.9587    1.9457 H   0  0  0  0  0  0  0  0  0  0  0  0
    3.3666    2.3268    0.0913 H   0  0  0  0  0  0  0  0  0  0  0  0
  1  5  1  0  0  0  0
  1  2  2  0  0  0  0
  2  3  1  0  0  0  0
  3  9  1  0  0  0  0
  4  3  2  0  0  0  0
  4 10  1  0  0  0  0
  5 11  1  1  0  0  0
  5  4  1  0  0  0  0
  6  5  1  0  0  0  0
  7  1  1  0  0  0  0
  8  2  1  0  0  0  0
M  END
