1
 OpenBabel05122313063D

 10  9  0  0  0  0  0  0  0  0999 V2000
    0.7964   -0.9736   -1.9784 O   0  5  0  0  0  0  0  0  0  0  0  0
    1.7490   -1.7340   -2.2825 C   0  0  0  0  0  0  0  0  0  0  0  0
    1.8874   -2.0272   -3.3495 H   0  0  0  0  0  0  0  0  0  0  0  0
    2.7006   -2.2765   -1.3726 C   0  0  0  0  0  0  0  0  0  0  0  0
    2.7169   -2.0189    0.0300 C   0  0  0  0  0  0  0  0  0  0  0  0
    3.5298   -2.5288    0.5990 H   0  0  0  0  0  0  0  0  0  0  0  0
    1.9099   -1.2809    0.6453 O   0  0  0  0  0  0  0  0  0  0  0  0
    3.7285   -3.1519   -1.9117 N   0  0  0  0  0  0  0  0  0  0  0  0
    4.5655   -3.6259   -1.1299 O   0  0  0  0  0  0  0  0  0  0  0  0
    3.7227   -3.3858   -3.1289 O   0  0  0  0  0  0  0  0  0  0  0  0
  2  1  1  0  0  0  0
  2  4  2  0  0  0  0
  3  2  1  0  0  0  0
  4  5  1  0  0  0  0
  5  6  1  0  0  0  0
  5  7  2  0  0  0  0
  8  4  1  0  0  0  0
  8  9  2  0  0  0  0
 10  8  2  0  0  0  0
M  CHG  1   1  -1
M  END
