2
 OpenBabel05122313063D

 29 30  0  0  0  0  0  0  0  0999 V2000
    5.9929   -0.9851   -0.5739 Br  0  0  0  0  0  0  0  0  0  0  0  0
   -2.4898    1.2254    0.3122 O   0  5  0  0  0  0  0  0  0  0  0  0
   -0.4595    1.4030   -0.6595 O   0  0  0  0  0  0  0  0  0  0  0  0
    0.8740    2.9787    1.7287 O   0  0  0  0  0  0  0  0  0  0  0  0
   -1.5020    1.9072   -0.2073 C   0  0  0  0  0  0  0  0  0  0  0  0
   -1.7216    3.3985   -0.1574 C   0  0  0  0  0  0  0  0  0  0  0  0
   -3.0321    3.8862    0.0250 C   0  0  0  0  0  0  0  0  0  0  0  0
   -3.8433    3.1509    0.1184 H   0  0  0  0  0  0  0  0  0  0  0  0
   -3.2915    5.2607    0.0788 C   0  0  0  0  0  0  0  0  0  0  0  0
   -4.3219    5.6233    0.2135 H   0  0  0  0  0  0  0  0  0  0  0  0
   -2.2283    6.1684   -0.0361 C   0  0  0  0  0  0  0  0  0  0  0  0
   -2.4136    7.2525    0.0120 H   0  0  0  0  0  0  0  0  0  0  0  0
   -0.9218    5.6909   -0.2129 C   0  0  0  0  0  0  0  0  0  0  0  0
   -0.0873    6.4050   -0.2991 H   0  0  0  0  0  0  0  0  0  0  0  0
   -0.6431    4.3138   -0.2865 C   0  0  0  0  0  0  0  0  0  0  0  0
    0.7748    3.8535   -0.5136 C   0  0  0  0  0  0  0  0  0  0  0  0
    1.4477    4.7392   -0.5657 H   0  0  0  0  0  0  0  0  0  0  0  0
    0.8450    3.3272   -1.4835 H   0  0  0  0  0  0  0  0  0  0  0  0
    1.3244    2.9453    0.5857 C   0  0  0  0  0  0  0  0  0  0  0  0
    2.4877    2.0511    0.2579 C   0  0  0  0  0  0  0  0  0  0  0  0
    3.0542    1.9430   -1.0281 C   0  0  0  0  0  0  0  0  0  0  0  0
    2.6614    2.5414   -1.8615 H   0  0  0  0  0  0  0  0  0  0  0  0
    4.1094    1.0561   -1.2787 C   0  0  0  0  0  0  0  0  0  0  0  0
    4.5402    0.9671   -2.2857 H   0  0  0  0  0  0  0  0  0  0  0  0
    4.6008    0.2631   -0.2299 C   0  0  0  0  0  0  0  0  0  0  0  0
    4.0674    0.3649    1.0668 C   0  0  0  0  0  0  0  0  0  0  0  0
    4.4679   -0.2599    1.8776 H   0  0  0  0  0  0  0  0  0  0  0  0
    3.0209    1.2607    1.2978 C   0  0  0  0  0  0  0  0  0  0  0  0
    2.5759    1.3634    2.2972 H   0  0  0  0  0  0  0  0  0  0  0  0
  1 25  1  0  0  0  0
  3  5  2  0  0  0  0
  5  6  1  0  0  0  0
  5  2  1  0  0  0  0
  6  7  1  0  0  0  0
  7  9  2  0  0  0  0
  7  8  1  0  0  0  0
  9 10  1  0  0  0  0
 11 12  1  0  0  0  0
 11  9  1  0  0  0  0
 13 11  2  0  0  0  0
 14 13  1  0  0  0  0
 15 13  1  0  0  0  0
 15  6  2  0  0  0  0
 16 15  1  0  0  0  0
 16 19  1  0  0  0  0
 17 16  1  0  0  0  0
 18 16  1  0  0  0  0
 19  4  2  0  0  0  0
 20 19  1  0  0  0  0
 20 28  1  0  0  0  0
 21 20  2  0  0  0  0
 22 21  1  0  0  0  0
 23 21  1  0  0  0  0
 23 25  2  0  0  0  0
 24 23  1  0  0  0  0
 25 26  1  0  0  0  0
 26 28  2  0  0  0  0
 26 27  1  0  0  0  0
 28 29  1  0  0  0  0
M  CHG  1   2  -1
M  END
