2
 OpenBabel05122313063D

  6  5  0  0  0  0  0  0  0  0999 V2000
   -0.4057   -3.1915   -0.2744 N   0  0  0  0  0  0  0  0  0  0  0  0
   -0.0349   -2.2408    0.6058 O   0  0  0  0  0  1  0  0  0  0  0  0
   -0.3597   -2.9467   -1.5113 O   0  0  0  0  0  1  0  0  0  0  0  0
   -0.7971   -4.3551    0.2339 C   0  0  0  0  0  3  0  0  0  0  0  0
   -1.0415   -5.1502   -0.4768 H   0  0  0  0  0  0  0  0  0  0  0  0
   -0.7905   -4.4679    1.3217 H   0  0  0  0  0  0  0  0  0  0  0  0
  1  4  1  0  0  0  0
  1  2  1  0  0  0  0
  3  1  1  0  0  0  0
  4  6  1  0  0  0  0
  5  4  1  0  0  0  0
M  END
