1
 OpenBabel05122313063D

 11 10  0  0  0  0  0  0  0  0999 V2000
   -0.0727   -1.7955   -0.0930 O   0  5  0  0  0  0  0  0  0  0  0  0
   -0.7162   -2.2817    2.0256 O   0  0  0  0  0  0  0  0  0  0  0  0
   -0.4663   -2.5919    0.8525 C   0  0  0  0  0  0  0  0  0  0  0  0
   -0.5693   -4.0752    0.4279 C   0  0  0  0  0  0  0  0  0  0  0  0
   -0.8126   -4.3044   -1.0318 C   0  0  0  0  0  0  0  0  0  0  0  0
   -1.8920   -4.9192   -1.5485 C   0  0  0  0  0  0  0  0  0  0  0  0
    0.4014   -4.5325    0.7309 H   0  0  0  0  0  0  0  0  0  0  0  0
   -1.3444   -4.5512    1.0604 H   0  0  0  0  0  0  0  0  0  0  0  0
   -0.0418   -3.9029   -1.7127 H   0  0  0  0  0  0  0  0  0  0  0  0
   -2.6882   -5.3217   -0.8994 H   0  0  0  0  0  0  0  0  0  0  0  0
   -2.0207   -5.0426   -2.6353 H   0  0  0  0  0  0  0  0  0  0  0  0
  1  3  1  0  0  0  0
  3  2  2  0  0  0  0
  4  7  1  0  0  0  0
  4  3  1  0  0  0  0
  4  8  1  0  0  0  0
  5  4  1  0  0  0  0
  6  5  2  0  0  0  0
  6 10  1  0  0  0  0
  9  5  1  0  0  0  0
 11  6  1  0  0  0  0
M  CHG  1   1  -1
M  END
