1
 OpenBabel05122313063D

 29 30  0  0  1  0  0  0  0  0999 V2000
   -1.7018   -0.4026   -1.6553 O   0  5  0  0  0  0  0  0  0  0  0  0
   -2.9645   -2.2101   -2.1552 O   0  0  0  0  0  0  0  0  0  0  0  0
   -0.3695   -1.7233    0.3150 N   0  0  0  0  0  0  0  0  0  0  0  0
   -2.1837   -1.6123   -1.4308 C   0  0  0  0  0  0  0  0  0  0  0  0
   -1.7174   -2.2435   -0.0992 C   0  0  2  0  0  0  0  0  0  0  0  0
   -1.6546   -3.3463   -0.2371 H   0  0  0  0  0  0  0  0  0  0  0  0
   -2.6164   -1.8988    1.1012 C   0  0  0  0  0  0  0  0  0  0  0  0
   -3.4540   -2.6160    1.1820 H   0  0  0  0  0  0  0  0  0  0  0  0
   -3.0488   -0.8885    0.9565 H   0  0  0  0  0  0  0  0  0  0  0  0
   -1.6694   -1.9078    2.3295 C   0  0  0  0  0  0  0  0  0  0  0  0
   -1.7428   -0.9543    2.8864 H   0  0  0  0  0  0  0  0  0  0  0  0
   -1.9082   -2.7220    3.0406 H   0  0  0  0  0  0  0  0  0  0  0  0
   -0.2587   -2.1047    1.7480 C   0  0  0  0  0  0  0  0  0  0  0  0
    0.5315   -1.5097    2.2438 H   0  0  0  0  0  0  0  0  0  0  0  0
    0.0403   -3.1770    1.7995 H   0  0  0  0  0  0  0  0  0  0  0  0
    0.6932   -2.3343   -0.5436 C   0  0  0  0  0  0  0  0  0  0  0  0
    0.7191   -3.4259   -0.3166 H   0  0  0  0  0  0  0  0  0  0  0  0
    0.3580   -2.2175   -1.5918 H   0  0  0  0  0  0  0  0  0  0  0  0
    2.0634   -1.7244   -0.3826 C   0  0  0  0  0  0  0  0  0  0  0  0
    2.5048   -0.7484   -1.2986 C   0  0  0  0  0  0  0  0  0  0  0  0
    1.8461   -0.4594   -2.1318 H   0  0  0  0  0  0  0  0  0  0  0  0
    3.7570   -0.1382   -1.1441 C   0  0  0  0  0  0  0  0  0  0  0  0
    4.0875    0.6232   -1.8668 H   0  0  0  0  0  0  0  0  0  0  0  0
    4.5861   -0.4949   -0.0675 C   0  0  0  0  0  0  0  0  0  0  0  0
    5.5674   -0.0126    0.0578 H   0  0  0  0  0  0  0  0  0  0  0  0
    4.1646   -1.4787    0.8403 C   0  0  0  0  0  0  0  0  0  0  0  0
    4.8159   -1.7737    1.6768 H   0  0  0  0  0  0  0  0  0  0  0  0
    2.9128   -2.0943    0.6777 C   0  0  0  0  0  0  0  0  0  0  0  0
    2.5952   -2.8778    1.3833 H   0  0  0  0  0  0  0  0  0  0  0  0
  1  4  1  0  0  0  0
  2  4  2  0  0  0  0
  3 13  1  0  0  0  0
  4  5  1  0  0  0  0
  5  6  1  6  0  0  0
  5  3  1  0  0  0  0
  5  7  1  0  0  0  0
  7  8  1  0  0  0  0
  7 10  1  0  0  0  0
  9  7  1  0  0  0  0
 10 11  1  0  0  0  0
 10 12  1  0  0  0  0
 13 15  1  0  0  0  0
 13 14  1  0  0  0  0
 13 10  1  0  0  0  0
 16 19  1  0  0  0  0
 16 17  1  0  0  0  0
 16  3  1  0  0  0  0
 18 16  1  0  0  0  0
 19 28  1  0  0  0  0
 20 22  1  0  0  0  0
 20 19  2  0  0  0  0
 21 20  1  0  0  0  0
 22 24  2  0  0  0  0
 23 22  1  0  0  0  0
 24 25  1  0  0  0  0
 24 26  1  0  0  0  0
 26 27  1  0  0  0  0
 28 26  2  0  0  0  0
 28 29  1  0  0  0  0
M  CHG  1   1  -1
M  END
