3
 OpenBabel05122313063D

 80 85  0  0  0  0  0  0  0  0999 V2000
    2.0113   -0.3628   -0.0820 P   0  0  0  0  0  0  0  0  0  0  0  0
   -2.2075   -0.4012    0.0443 P   0  0  0  0  0  0  0  0  0  0  0  0
    0.2902   -2.2210    0.9469 O   0  0  0  0  0  1  0  0  0  0  0  0
    2.1331   -0.1074    1.7340 C   0  0  0  0  0  0  0  0  0  0  0  0
    3.1844    0.5813    2.3547 C   0  0  0  0  0  0  0  0  0  0  0  0
    4.0824    0.8427    1.7734 H   0  0  0  0  0  0  0  0  0  0  0  0
    3.0643    0.9903    3.6940 C   0  0  0  0  0  0  0  0  0  0  0  0
    3.8863    1.5367    4.1804 H   0  0  0  0  0  0  0  0  0  0  0  0
    1.8704    0.7402    4.3872 C   0  0  0  0  0  0  0  0  0  0  0  0
    1.7528    1.0914    5.4239 H   0  0  0  0  0  0  0  0  0  0  0  0
    0.8170    0.0469    3.7689 C   0  0  0  0  0  0  0  0  0  0  0  0
   -0.1135   -0.1332    4.3254 H   0  0  0  0  0  0  0  0  0  0  0  0
    0.9417   -0.4206    2.4438 C   0  0  0  0  0  0  0  0  0  0  0  0
   -0.1069   -1.2257    1.7332 C   0  0  0  0  0  3  0  0  0  0  0  0
   -1.4544   -1.4584    2.3860 C   0  0  0  0  0  0  0  0  0  0  0  0
   -1.5892   -2.1116    3.6281 C   0  0  0  0  0  0  0  0  0  0  0  0
   -0.6900   -2.3965    4.1949 H   0  0  0  0  0  0  0  0  0  0  0  0
   -2.8616   -2.4372    4.1225 C   0  0  0  0  0  0  0  0  0  0  0  0
   -2.9535   -2.9533    5.0904 H   0  0  0  0  0  0  0  0  0  0  0  0
   -4.0155   -2.1302    3.3800 C   0  0  0  0  0  0  0  0  0  0  0  0
   -5.0095   -2.3960    3.7707 H   0  0  0  0  0  0  0  0  0  0  0  0
   -3.8990   -1.4948    2.1355 C   0  0  0  0  0  0  0  0  0  0  0  0
   -4.7936   -1.2697    1.5351 H   0  0  0  0  0  0  0  0  0  0  0  0
   -2.6251   -1.1499    1.6520 C   0  0  0  0  0  0  0  0  0  0  0  0
    2.5635    1.2548   -0.7452 C   0  0  0  0  0  0  0  0  0  0  0  0
    3.8732    1.5006   -1.1946 C   0  0  0  0  0  0  0  0  0  0  0  0
    4.6114    0.6844   -1.2138 H   0  0  0  0  0  0  0  0  0  0  0  0
    4.2397    2.7865   -1.6231 C   0  0  0  0  0  0  0  0  0  0  0  0
    5.2685    2.9668   -1.9738 H   0  0  0  0  0  0  0  0  0  0  0  0
    3.3172    3.8506   -1.6144 C   0  0  0  0  0  0  0  0  0  0  0  0
    2.0054    3.5874   -1.1615 C   0  0  0  0  0  0  0  0  0  0  0  0
    1.2582    4.3976   -1.1523 H   0  0  0  0  0  0  0  0  0  0  0  0
    1.6276    2.3106   -0.7382 C   0  0  0  0  0  0  0  0  0  0  0  0
    0.5947    2.1226   -0.4094 H   0  0  0  0  0  0  0  0  0  0  0  0
    3.2829   -1.5604   -0.5943 C   0  0  0  0  0  0  0  0  0  0  0  0
    3.4149   -1.8253   -1.9765 C   0  0  0  0  0  0  0  0  0  0  0  0
    2.7840   -1.2789   -2.6960 H   0  0  0  0  0  0  0  0  0  0  0  0
    4.3272   -2.7864   -2.4212 C   0  0  0  0  0  0  0  0  0  0  0  0
    4.4244   -2.9806   -3.5015 H   0  0  0  0  0  0  0  0  0  0  0  0
    5.1177   -3.5231   -1.5103 C   0  0  0  0  0  0  0  0  0  0  0  0
    4.9588   -3.2639   -0.1354 C   0  0  0  0  0  0  0  0  0  0  0  0
    5.5581   -3.8329    0.5932 H   0  0  0  0  0  0  0  0  0  0  0  0
    4.0514   -2.2973    0.3244 C   0  0  0  0  0  0  0  0  0  0  0  0
    3.9388   -2.1143    1.4036 H   0  0  0  0  0  0  0  0  0  0  0  0
   -2.1267    1.4136    0.3218 C   0  0  0  0  0  0  0  0  0  0  0  0
   -2.1557    2.2795   -0.7926 C   0  0  0  0  0  0  0  0  0  0  0  0
   -2.3391    1.8703   -1.7971 H   0  0  0  0  0  0  0  0  0  0  0  0
   -1.9022    3.6467   -0.6291 C   0  0  0  0  0  0  0  0  0  0  0  0
   -1.9250    4.3072   -1.5107 H   0  0  0  0  0  0  0  0  0  0  0  0
   -1.5983    4.1918    0.6366 C   0  0  0  0  0  0  0  0  0  0  0  0
   -1.5861    3.3188    1.7439 C   0  0  0  0  0  0  0  0  0  0  0  0
   -1.3587    3.7172    2.7455 H   0  0  0  0  0  0  0  0  0  0  0  0
   -1.8470    1.9506    1.5948 C   0  0  0  0  0  0  0  0  0  0  0  0
   -1.8188    1.2915    2.4751 H   0  0  0  0  0  0  0  0  0  0  0  0
   -3.6212   -0.6531   -1.0809 C   0  0  0  0  0  0  0  0  0  0  0  0
   -3.4850   -1.5958   -2.1192 C   0  0  0  0  0  0  0  0  0  0  0  0
   -2.5205   -2.1089   -2.2528 H   0  0  0  0  0  0  0  0  0  0  0  0
   -4.5570   -1.8465   -2.9840 C   0  0  0  0  0  0  0  0  0  0  0  0
   -4.4382   -2.5842   -3.7936 H   0  0  0  0  0  0  0  0  0  0  0  0
   -5.7841   -1.1643   -2.8439 C   0  0  0  0  0  0  0  0  0  0  0  0
   -5.9032   -0.2137   -1.8087 C   0  0  0  0  0  0  0  0  0  0  0  0
   -6.8510    0.3345   -1.6858 H   0  0  0  0  0  0  0  0  0  0  0  0
   -4.8354    0.0479   -0.9393 C   0  0  0  0  0  0  0  0  0  0  0  0
   -4.9417    0.8093   -0.1508 H   0  0  0  0  0  0  0  0  0  0  0  0
    3.7014    5.2260   -2.0974 C   0  0  0  0  0  0  0  0  0  0  0  0
    4.7976    5.3291   -2.2146 H   0  0  0  0  0  0  0  0  0  0  0  0
    3.3529    6.0134   -1.3982 H   0  0  0  0  0  0  0  0  0  0  0  0
    3.2379    5.4454   -3.0831 H   0  0  0  0  0  0  0  0  0  0  0  0
    6.0868   -4.5656   -2.0067 C   0  0  0  0  0  0  0  0  0  0  0  0
    5.5549   -5.3936   -2.5212 H   0  0  0  0  0  0  0  0  0  0  0  0
    6.6750   -5.0059   -1.1786 H   0  0  0  0  0  0  0  0  0  0  0  0
    6.7985   -4.1379   -2.7431 H   0  0  0  0  0  0  0  0  0  0  0  0
   -1.2511    5.6500    0.7938 C   0  0  0  0  0  0  0  0  0  0  0  0
   -1.6967    6.2673   -0.0109 H   0  0  0  0  0  0  0  0  0  0  0  0
   -0.1497    5.7986    0.7510 H   0  0  0  0  0  0  0  0  0  0  0  0
   -1.5919    6.0508    1.7692 H   0  0  0  0  0  0  0  0  0  0  0  0
   -6.9213   -1.4234   -3.7990 C   0  0  0  0  0  0  0  0  0  0  0  0
   -7.8811   -1.0308   -3.4109 H   0  0  0  0  0  0  0  0  0  0  0  0
   -7.0446   -2.5068   -3.9990 H   0  0  0  0  0  0  0  0  0  0  0  0
   -6.7342   -0.9351   -4.7795 H   0  0  0  0  0  0  0  0  0  0  0  0
  1  4  1  0  0  0  0
  2 45  1  0  0  0  0
  2 24  1  0  0  0  0
  3 14  1  0  0  0  0
  4  5  2  0  0  0  0
  4 13  1  0  0  0  0
  5  7  1  0  0  0  0
  6  5  1  0  0  0  0
  7  8  1  0  0  0  0
  7  9  2  0  0  0  0
  9 10  1  0  0  0  0
 11 12  1  0  0  0  0
 11  9  1  0  0  0  0
 13 11  2  0  0  0  0
 14 15  1  0  0  0  0
 14 13  1  0  0  0  0
 15 16  1  0  0  0  0
 16 18  2  0  0  0  0
 16 17  1  0  0  0  0
 18 19  1  0  0  0  0
 20 21  1  0  0  0  0
 20 18  1  0  0  0  0
 22 20  2  0  0  0  0
 23 22  1  0  0  0  0
 24 22  1  0  0  0  0
 24 15  2  0  0  0  0
 25 33  1  0  0  0  0
 25  1  1  0  0  0  0
 26 25  2  0  0  0  0
 27 26  1  0  0  0  0
 28 30  2  0  0  0  0
 28 26  1  0  0  0  0
 29 28  1  0  0  0  0
 30 31  1  0  0  0  0
 31 32  1  0  0  0  0
 31 33  2  0  0  0  0
 33 34  1  0  0  0  0
 35  1  1  0  0  0  0
 35 43  1  0  0  0  0
 36 35  2  0  0  0  0
 37 36  1  0  0  0  0
 38 36  1  0  0  0  0
 38 40  2  0  0  0  0
 39 38  1  0  0  0  0
 40 41  1  0  0  0  0
 41 43  2  0  0  0  0
 41 42  1  0  0  0  0
 43 44  1  0  0  0  0
 45 53  1  0  0  0  0
 46 48  1  0  0  0  0
 46 45  2  0  0  0  0
 47 46  1  0  0  0  0
 48 50  2  0  0  0  0
 49 48  1  0  0  0  0
 50 73  1  0  0  0  0
 50 51  1  0  0  0  0
 51 52  1  0  0  0  0
 53 51  2  0  0  0  0
 53 54  1  0  0  0  0
 55 63  1  0  0  0  0
 55  2  1  0  0  0  0
 56 55  2  0  0  0  0
 57 56  1  0  0  0  0
 58 60  2  0  0  0  0
 58 56  1  0  0  0  0
 59 58  1  0  0  0  0
 60 61  1  0  0  0  0
 61 62  1  0  0  0  0
 61 63  2  0  0  0  0
 63 64  1  0  0  0  0
 65 30  1  0  0  0  0
 65 67  1  0  0  0  0
 66 65  1  0  0  0  0
 68 65  1  0  0  0  0
 69 40  1  0  0  0  0
 69 71  1  0  0  0  0
 70 69  1  0  0  0  0
 72 69  1  0  0  0  0
 73 76  1  0  0  0  0
 74 73  1  0  0  0  0
 75 73  1  0  0  0  0
 77 78  1  0  0  0  0
 77 60  1  0  0  0  0
 79 77  1  0  0  0  0
 80 77  1  0  0  0  0
M  END
