2
 OpenBabel05122313063D

 46 48  0  0  1  0  0  0  0  0999 V2000
   -1.1498    1.7124    1.3495 C   0  0  0  0  0  0  0  0  0  0  0  0
   -1.1255    0.6795    0.5799 O   0  5  0  0  0  0  0  0  0  0  0  0
    0.1312    1.9004    2.1809 C   0  0  1  0  0  0  0  0  0  0  0  0
    0.6748    2.7503    1.7107 H   0  0  0  0  0  0  0  0  0  0  0  0
   -2.0798    2.5374    1.4536 O   0  0  0  0  0  0  0  0  0  0  0  0
   -0.1980    2.2809    3.6282 C   0  0  0  0  0  0  0  0  0  0  0  0
   -0.8690    3.1601    3.6270 H   0  0  0  0  0  0  0  0  0  0  0  0
    0.7158    2.5238    4.2065 H   0  0  0  0  0  0  0  0  0  0  0  0
   -0.7287    1.4531    4.1414 H   0  0  0  0  0  0  0  0  0  0  0  0
    1.0105    0.6438    2.1064 C   0  0  0  0  0  0  0  0  0  0  0  0
    0.5160   -0.2030    2.6271 H   0  0  0  0  0  0  0  0  0  0  0  0
    1.9905    0.8135    2.5951 H   0  0  0  0  0  0  0  0  0  0  0  0
    1.3721    0.0432    0.3964 P   0  0  0  0  0  4  0  0  0  0  0  0
    1.2339    1.3464   -0.8610 C   0  0  0  0  0  0  0  0  0  0  0  0
    0.3084    1.2203   -1.9148 C   0  0  0  0  0  0  0  0  0  0  0  0
   -0.3688    0.3501   -1.9867 H   0  0  0  0  0  0  0  0  0  0  0  0
    0.2062    2.2510   -2.8595 C   0  0  0  0  0  0  0  0  0  0  0  0
   -0.5265    2.1485   -3.6742 H   0  0  0  0  0  0  0  0  0  0  0  0
    1.0067    3.3998   -2.7526 C   0  0  0  0  0  0  0  0  0  0  0  0
    0.9147    4.2076   -3.4944 H   0  0  0  0  0  0  0  0  0  0  0  0
    1.9218    3.5249   -1.6941 C   0  0  0  0  0  0  0  0  0  0  0  0
    2.5463    4.4262   -1.6038 H   0  0  0  0  0  0  0  0  0  0  0  0
    2.0414    2.4983   -0.7457 C   0  0  0  0  0  0  0  0  0  0  0  0
    2.7683    2.5957    0.0760 H   0  0  0  0  0  0  0  0  0  0  0  0
    3.1596   -0.4028    0.4405 C   0  0  0  0  0  0  0  0  0  0  0  0
    3.6228   -1.1856    1.5204 C   0  0  0  0  0  0  0  0  0  0  0  0
    2.9368   -1.4796    2.3303 H   0  0  0  0  0  0  0  0  0  0  0  0
    4.9564   -1.6130    1.5624 C   0  0  0  0  0  0  0  0  0  0  0  0
    5.3078   -2.2213    2.4092 H   0  0  0  0  0  0  0  0  0  0  0  0
    5.8381   -1.2718    0.5234 C   0  0  0  0  0  0  0  0  0  0  0  0
    6.8851   -1.6087    0.5568 H   0  0  0  0  0  0  0  0  0  0  0  0
    5.3799   -0.5064   -0.5589 C   0  0  0  0  0  0  0  0  0  0  0  0
    6.0648   -0.2421   -1.3785 H   0  0  0  0  0  0  0  0  0  0  0  0
    4.0451   -0.0731   -0.6046 C   0  0  0  0  0  0  0  0  0  0  0  0
    3.6935    0.5256   -1.4573 H   0  0  0  0  0  0  0  0  0  0  0  0
    0.5901   -1.5110   -0.1116 C   0  0  0  0  0  0  0  0  0  0  0  0
    1.0583   -2.0995   -1.3064 C   0  0  0  0  0  0  0  0  0  0  0  0
    1.8824   -1.6399   -1.8730 H   0  0  0  0  0  0  0  0  0  0  0  0
    0.4507   -3.2663   -1.7839 C   0  0  0  0  0  0  0  0  0  0  0  0
    0.7964   -3.7107   -2.7289 H   0  0  0  0  0  0  0  0  0  0  0  0
   -0.6052   -3.8543   -1.0687 C   0  0  0  0  0  0  0  0  0  0  0  0
   -1.0949   -4.7586   -1.4596 H   0  0  0  0  0  0  0  0  0  0  0  0
   -1.0525   -3.2783    0.1278 C   0  0  0  0  0  0  0  0  0  0  0  0
   -1.9135   -3.6877    0.6754 H   0  0  0  0  0  0  0  0  0  0  0  0
   -0.4564   -2.1060    0.6137 C   0  0  0  0  0  0  0  0  0  0  0  0
   -0.8821   -1.6364    1.5119 H   0  0  0  0  0  0  0  0  0  0  0  0
  1  5  2  0  0  0  0
  1  3  1  0  0  0  0
  2  1  1  0  0  0  0
  3  4  1  6  0  0  0
  3  6  1  0  0  0  0
  6  9  1  0  0  0  0
  6  8  1  0  0  0  0
  7  6  1  0  0  0  0
 10  3  1  0  0  0  0
 10 12  1  0  0  0  0
 10 11  1  0  0  0  0
 13 25  1  0  0  0  0
 13 10  1  0  0  0  0
 14 23  1  0  0  0  0
 14 13  1  0  0  0  0
 15 14  2  0  0  0  0
 16 15  1  0  0  0  0
 17 19  2  0  0  0  0
 17 15  1  0  0  0  0
 18 17  1  0  0  0  0
 19 21  1  0  0  0  0
 20 19  1  0  0  0  0
 21 22  1  0  0  0  0
 21 23  2  0  0  0  0
 23 24  1  0  0  0  0
 25 26  1  0  0  0  0
 26 28  2  0  0  0  0
 26 27  1  0  0  0  0
 28 29  1  0  0  0  0
 30 31  1  0  0  0  0
 30 28  1  0  0  0  0
 32 30  2  0  0  0  0
 33 32  1  0  0  0  0
 34 32  1  0  0  0  0
 34 25  2  0  0  0  0
 35 34  1  0  0  0  0
 36 13  1  0  0  0  0
 36 45  1  0  0  0  0
 37 36  2  0  0  0  0
 38 37  1  0  0  0  0
 39 37  1  0  0  0  0
 39 41  2  0  0  0  0
 40 39  1  0  0  0  0
 41 43  1  0  0  0  0
 42 41  1  0  0  0  0
 43 45  2  0  0  0  0
 43 44  1  0  0  0  0
 45 46  1  0  0  0  0
M  CHG  1   2  -1
M  END
