12
 OpenBabel05122313063D

 19 18  0  0  1  0  0  0  0  0999 V2000
    2.9128    1.4558    0.0196 P   0  0  2  0  0  0  0  0  0  0  0  0
    4.0015   -1.3127    0.0083 P   0  0  0  0  0  0  0  0  0  0  0  0
    4.5101    0.4761   -0.0272 C   0  0  2  0  0  0  0  0  0  0  0  0
    5.3548    0.7933    1.2192 C   0  0  0  0  0  0  0  0  0  0  0  0
    5.6373    1.8656    1.2177 H   0  0  0  0  0  0  0  0  0  0  0  0
    4.7941    0.5817    2.1493 H   0  0  0  0  0  0  0  0  0  0  0  0
    6.2833    0.1861    1.2040 H   0  0  0  0  0  0  0  0  0  0  0  0
    5.1345    0.7034   -1.3219 N   0  0  0  0  0  0  0  0  0  0  0  0
    6.0490    0.2370   -1.3652 H   0  0  0  0  0  0  0  0  0  0  0  0
    2.5355   -0.8688   -1.4406 H   0  0  0  0  0  0  0  0  0  0  0  0
    5.2591    1.7100   -1.4829 H   0  0  0  0  0  0  0  0  0  0  0  0
    1.8531    0.6124   -0.7595 O   0  0  0  0  0  1  0  0  0  0  0  0
    3.2833    2.7785   -0.9109 O   0  0  0  0  0  0  0  0  0  0  0  0
    3.2363    3.5485   -0.3094 H   0  0  0  0  0  0  0  0  0  0  0  0
    2.5574    1.9315    1.4285 O   0  0  0  0  0  0  0  0  0  0  0  0
    3.2060   -1.6135   -1.3500 O   0  0  0  0  0  0  0  0  0  0  0  0
    5.4060   -2.1222   -0.2209 O   0  0  0  0  0  0  0  0  0  0  0  0
    5.5331   -2.7176    0.5440 H   0  0  0  0  0  0  0  0  0  0  0  0
    3.3440   -1.7324    1.3182 O   0  0  0  0  0  0  0  0  0  0  0  0
  1 12  1  6  0  0  0
  1 15  2  0  0  0  0
  2 19  2  0  0  0  0
  3  8  1  6  0  0  0
  3  2  1  0  0  0  0
  3  1  1  0  0  0  0
  3  4  1  0  0  0  0
  4  6  1  0  0  0  0
  5  4  1  0  0  0  0
  7  4  1  0  0  0  0
  9  8  1  0  0  0  0
 10 16  1  0  0  0  0
 11  8  1  0  0  0  0
 13 14  1  0  0  0  0
 13  1  1  0  0  0  0
 16  2  1  0  0  0  0
 17  2  1  0  0  0  0
 17 18  1  0  0  0  0
M  END
