6
 OpenBabel05122313063D

 18 18  0  0  1  0  0  0  0  0999 V2000
    2.2489    2.8523   -0.7975 N   0  0  0  0  0  0  0  0  0  0  0  0
    1.6840    3.5449   -1.2951 H   0  0  0  0  0  0  0  0  0  0  0  0
    3.2046    3.0965   -0.5382 H   0  0  0  0  0  0  0  0  0  0  0  0
    1.7845   -0.6018    0.4799 N   0  0  0  0  0  0  0  0  0  0  0  0
    1.7246   -0.7931    1.4919 H   0  0  0  0  0  0  0  0  0  0  0  0
    0.5234    1.3942   -0.7972 O   0  0  0  0  0  1  0  0  0  0  0  0
    1.7001    1.6807   -0.4568 C   0  0  1  0  0  3  0  0  0  0  0  0
    2.5346    0.7008    0.3476 C   0  0  2  0  0  0  0  0  0  0  0  0
    2.6324    1.1331    1.3640 H   0  0  0  0  0  0  0  0  0  0  0  0
    3.9127    0.3478   -0.2721 C   0  0  0  0  0  0  0  0  0  0  0  0
    3.9027    0.5410   -1.3647 H   0  0  0  0  0  0  0  0  0  0  0  0
    4.7348    0.9432    0.1690 H   0  0  0  0  0  0  0  0  0  0  0  0
    4.0529   -1.1594   -0.0071 C   0  0  0  0  0  0  0  0  0  0  0  0
    4.7641   -1.6530   -0.6965 H   0  0  0  0  0  0  0  0  0  0  0  0
    4.4028   -1.3470    1.0294 H   0  0  0  0  0  0  0  0  0  0  0  0
    2.6154   -1.6492   -0.1817 C   0  0  0  0  0  0  0  0  0  0  0  0
    2.3403   -1.6875   -1.2550 H   0  0  0  0  0  0  0  0  0  0  0  0
    2.3982   -2.6360    0.2685 H   0  0  0  0  0  0  0  0  0  0  0  0
  1  3  1  0  0  0  0
  1  7  1  0  0  0  0
  2  1  1  0  0  0  0
  4  5  1  0  0  0  0
  7  6  1  6  0  0  0
  7  8  1  0  0  0  0
  8  4  1  0  0  0  0
  8  9  1  1  0  0  0
 10 13  1  0  0  0  0
 10 12  1  0  0  0  0
 10  8  1  0  0  0  0
 11 10  1  0  0  0  0
 13 15  1  0  0  0  0
 14 13  1  0  0  0  0
 16 13  1  0  0  0  0
 16 18  1  0  0  0  0
 16  4  1  0  0  0  0
 17 16  1  0  0  0  0
M  END
