1
 OpenBabel05122313063D

 14 14  0  0  0  0  0  0  0  0999 V2000
   -0.0204    0.5908   -1.3280 O   0  5  0  0  0  0  0  0  0  0  0  0
    1.4566    2.2136   -1.7667 O   0  0  0  0  0  0  0  0  0  0  0  0
    0.4477   -1.6696    0.5018 S   0  0  0  0  0  1  0  0  0  0  0  0
    1.2048    1.1283   -1.2596 C   0  0  0  0  0  0  0  0  0  0  0  0
    2.2433    0.2984   -0.5547 C   0  0  0  0  0  0  0  0  0  0  0  0
    2.0008   -0.8660    0.2391 C   0  0  0  0  0  0  0  0  0  0  0  0
    3.1154   -1.5111    0.8400 C   0  0  0  0  0  0  0  0  0  0  0  0
    2.9260   -2.4022    1.4574 H   0  0  0  0  0  0  0  0  0  0  0  0
    4.4171   -1.0424    0.6607 C   0  0  0  0  0  0  0  0  0  0  0  0
    5.2544   -1.5702    1.1428 H   0  0  0  0  0  0  0  0  0  0  0  0
    4.6545    0.1038   -0.1225 C   0  0  0  0  0  0  0  0  0  0  0  0
    5.6768    0.4862   -0.2598 H   0  0  0  0  0  0  0  0  0  0  0  0
    3.5734    0.7559   -0.7141 C   0  0  0  0  0  0  0  0  0  0  0  0
    3.7117    1.6619   -1.3222 H   0  0  0  0  0  0  0  0  0  0  0  0
  1  4  1  0  0  0  0
  2  4  2  0  0  0  0
  4  5  1  0  0  0  0
  5  6  1  0  0  0  0
  6  3  1  0  0  0  0
  6  7  2  0  0  0  0
  7  8  1  0  0  0  0
  9  7  1  0  0  0  0
  9 10  1  0  0  0  0
 11  9  2  0  0  0  0
 12 11  1  0  0  0  0
 13  5  2  0  0  0  0
 13 11  1  0  0  0  0
 14 13  1  0  0  0  0
M  CHG  1   1  -1
M  END
