3
 OpenBabel05122313063D

 28 28  0  0  1  0  0  0  0  0999 V2000
   -7.8703   -1.7459    0.6285 N   0  0  0  0  0  0  0  0  0  0  0  0
   -8.1228   -0.8440    1.0572 H   0  0  0  0  0  0  0  0  0  0  0  0
   -1.7091    1.5669   -0.0220 O   0  5  0  0  0  0  0  0  0  0  0  0
  -10.4558   -0.8270    0.0288 O   0  0  0  0  0  0  0  0  0  0  0  0
  -11.3335   -2.8824   -0.0306 O   0  0  0  0  0  0  0  0  0  0  0  0
  -11.0301   -3.7945    0.1484 H   0  0  0  0  0  0  0  0  0  0  0  0
   -2.3375    2.3837   -2.0434 O   0  0  0  0  0  0  0  0  0  0  0  0
  -10.3109   -2.0159    0.2060 C   0  0  0  0  0  0  0  0  0  0  0  0
   -2.5252    1.6648   -1.0200 C   0  0  0  0  0  0  0  0  0  0  0  0
   -7.4245   -1.5032   -0.7395 C   0  0  0  0  0  0  0  0  0  0  0  0
   -8.2040   -1.0303   -1.3862 H   0  0  0  0  0  0  0  0  0  0  0  0
   -7.2042   -2.4958   -1.1987 H   0  0  0  0  0  0  0  0  0  0  0  0
   -4.0299    0.0188    0.1729 C   0  0  0  0  0  0  0  0  0  0  0  0
   -3.2770   -0.0294    0.9726 H   0  0  0  0  0  0  0  0  0  0  0  0
   -5.2080   -0.7328    0.2420 C   0  0  0  0  0  0  0  0  0  0  0  0
   -5.4155   -1.3846    1.1035 H   0  0  0  0  0  0  0  0  0  0  0  0
   -9.0024   -2.6391    0.7529 C   0  0  2  0  0  0  0  0  0  0  0  0
   -8.7807   -3.5534    0.1533 H   0  0  0  0  0  0  0  0  0  0  0  0
   -4.7386    0.9320   -1.9659 C   0  0  0  0  0  0  0  0  0  0  0  0
   -4.5357    1.5964   -2.8182 H   0  0  0  0  0  0  0  0  0  0  0  0
   -3.7831    0.8558   -0.9333 C   0  0  0  0  0  0  0  0  0  0  0  0
   -5.9184    0.1844   -1.8895 C   0  0  0  0  0  0  0  0  0  0  0  0
   -6.6685    0.2595   -2.6931 H   0  0  0  0  0  0  0  0  0  0  0  0
   -9.2086   -3.0473    2.2218 C   0  0  0  0  0  0  0  0  0  0  0  0
   -8.2805   -3.5052    2.6130 H   0  0  0  0  0  0  0  0  0  0  0  0
  -10.0445   -3.7650    2.3436 H   0  0  0  0  0  0  0  0  0  0  0  0
   -9.4424   -2.1543    2.8364 H   0  0  0  0  0  0  0  0  0  0  0  0
   -6.1660   -0.6621   -0.7898 C   0  0  0  0  0  0  0  0  0  0  0  0
  1 17  1  0  0  0  0
  1  2  1  0  0  0  0
  4  8  2  0  0  0  0
  5  6  1  0  0  0  0
  5  8  1  0  0  0  0
  7  9  2  0  0  0  0
  8 17  1  0  0  0  0
  9 21  1  0  0  0  0
  9  3  1  0  0  0  0
 10  1  1  0  0  0  0
 11 10  1  0  0  0  0
 12 10  1  0  0  0  0
 13 15  1  0  0  0  0
 13 14  1  0  0  0  0
 15 16  1  0  0  0  0
 17 18  1  6  0  0  0
 17 24  1  0  0  0  0
 19 22  2  0  0  0  0
 19 21  1  0  0  0  0
 20 19  1  0  0  0  0
 21 13  2  0  0  0  0
 22 28  1  0  0  0  0
 23 22  1  0  0  0  0
 24 26  1  0  0  0  0
 24 25  1  0  0  0  0
 24 27  1  0  0  0  0
 28 10  1  0  0  0  0
 28 15  2  0  0  0  0
M  CHG  1   3  -1
M  END
