2
 OpenBabel05122313063D

 20 21  0  0  0  0  0  0  0  0999 V2000
   -1.8995    1.7390    0.4515 C   0  0  0  0  0  0  0  0  0  0  0  0
   -0.7053    1.4530    0.0862 O   0  5  0  0  0  0  0  0  0  0  0  0
   -2.3998    1.5889    1.5920 O   0  0  0  0  0  0  0  0  0  0  0  0
   -3.6946   -0.6884   -0.5324 N   0  0  0  0  0  0  0  0  0  0  0  0
   -6.5151   -0.8772   -0.3778 C   0  0  0  0  0  0  0  0  0  0  0  0
   -4.1401    1.7449   -0.5856 N   0  0  0  0  0  0  0  0  0  0  0  0
   -7.8561   -1.0177   -0.3062 N   0  0  0  0  0  0  0  0  0  0  0  0
   -8.2553   -1.9530   -0.2509 H   0  0  0  0  0  0  0  0  0  0  0  0
   -8.4498   -0.1910   -0.2901 H   0  0  0  0  0  0  0  0  0  0  0  0
   -6.4040    1.6818   -0.4352 N   0  0  0  0  0  0  0  0  0  0  0  0
   -4.4838    0.4070   -0.5276 C   0  0  0  0  0  0  0  0  0  0  0  0
   -5.7342   -1.9823   -0.3843 N   0  0  0  0  0  0  0  0  0  0  0  0
   -2.7984    2.2853   -0.6725 C   0  0  0  0  0  0  0  0  0  0  0  0
   -2.8615    3.3885   -0.5910 H   0  0  0  0  0  0  0  0  0  0  0  0
   -2.3347    2.0343   -1.6463 H   0  0  0  0  0  0  0  0  0  0  0  0
   -5.8936    0.3997   -0.4426 C   0  0  0  0  0  0  0  0  0  0  0  0
   -5.3340    2.4495   -0.5142 C   0  0  0  0  0  0  0  0  0  0  0  0
   -5.3326    3.5483   -0.5294 H   0  0  0  0  0  0  0  0  0  0  0  0
   -4.4069   -1.8330   -0.4501 C   0  0  0  0  0  0  0  0  0  0  0  0
   -3.8084   -2.7610   -0.4257 H   0  0  0  0  0  0  0  0  0  0  0  0
  1  3  2  0  0  0  0
  2  1  1  0  0  0  0
  4 11  2  0  0  0  0
  4 19  1  0  0  0  0
  5  7  1  0  0  0  0
  6 11  1  0  0  0  0
  6 17  1  0  0  0  0
  7  9  1  0  0  0  0
  7  8  1  0  0  0  0
 11 16  1  0  0  0  0
 12  5  1  0  0  0  0
 13 14  1  0  0  0  0
 13  6  1  0  0  0  0
 13  1  1  0  0  0  0
 15 13  1  0  0  0  0
 16 10  1  0  0  0  0
 16  5  2  0  0  0  0
 17 10  2  0  0  0  0
 18 17  1  0  0  0  0
 19 20  1  0  0  0  0
 19 12  2  0  0  0  0
M  CHG  1   2  -1
M  END
