3
 OpenBabel05122313063D

 28 30  0  0  1  0  0  0  0  0999 V2000
   -2.1283   -0.5942   -0.5303 N   0  0  0  0  0  0  0  0  0  0  0  0
   -1.1541   -0.5259   -0.9245 H   0  0  0  0  0  0  0  0  0  0  0  0
   -0.1866    1.4087   -0.1175 O   0  5  0  0  0  0  0  0  0  0  0  0
   -4.4542   -0.0582    0.3835 S   0  0  0  0  0  0  0  0  0  0  0  0
   -1.1602    2.2851   -0.2262 C   0  0  0  0  0  0  0  0  0  0  0  0
   -0.8582    3.6834   -0.2537 C   0  0  0  0  0  0  0  0  0  0  0  0
   -1.9164    4.5948   -0.3358 C   0  0  0  0  0  0  0  0  0  0  0  0
   -1.6778    5.6698   -0.3632 H   0  0  0  0  0  0  0  0  0  0  0  0
   -3.2663    4.1836   -0.3843 C   0  0  0  0  0  0  0  0  0  0  0  0
   -4.0701    4.9298   -0.4578 H   0  0  0  0  0  0  0  0  0  0  0  0
   -3.5691    2.8298   -0.3531 C   0  0  0  0  0  0  0  0  0  0  0  0
   -4.6163    2.4950   -0.4169 H   0  0  0  0  0  0  0  0  0  0  0  0
   -2.5325    1.8572   -0.2823 C   0  0  0  0  0  0  0  0  0  0  0  0
   -2.8874    0.4612   -0.2081 C   0  0  1  0  0  3  0  0  0  0  0  0
   -4.0229   -1.7448    0.1600 C   0  0  0  0  0  0  0  0  0  0  0  0
   -4.7835   -2.8945    0.4208 C   0  0  0  0  0  0  0  0  0  0  0  0
   -5.8105   -2.8226    0.8055 H   0  0  0  0  0  0  0  0  0  0  0  0
   -4.1838   -4.1376    0.1814 C   0  0  0  0  0  0  0  0  0  0  0  0
   -4.7552   -5.0557    0.3821 H   0  0  0  0  0  0  0  0  0  0  0  0
   -2.8608   -4.2323   -0.3061 C   0  0  0  0  0  0  0  0  0  0  0  0
   -2.4186   -5.2244   -0.4777 H   0  0  0  0  0  0  0  0  0  0  0  0
   -2.0987   -3.0909   -0.5702 C   0  0  0  0  0  0  0  0  0  0  0  0
   -1.0666   -3.1308   -0.9457 H   0  0  0  0  0  0  0  0  0  0  0  0
   -2.6991   -1.8424   -0.3335 C   0  0  0  0  0  0  0  0  0  0  0  0
    0.5763    4.1198   -0.1857 C   0  0  0  0  0  0  0  0  0  0  0  0
    1.0531    3.7742    0.7552 H   0  0  0  0  0  0  0  0  0  0  0  0
    0.6597    5.2210   -0.2434 H   0  0  0  0  0  0  0  0  0  0  0  0
    1.1745    3.6686   -1.0036 H   0  0  0  0  0  0  0  0  0  0  0  0
  1 24  1  0  0  0  0
  1 14  1  0  0  0  0
  2  1  1  0  0  0  0
  5  3  1  0  0  0  0
  6  5  1  0  0  0  0
  6 25  1  0  0  0  0
  7  6  2  0  0  0  0
  8  7  1  0  0  0  0
  9 11  2  0  0  0  0
  9  7  1  0  0  0  0
 10  9  1  0  0  0  0
 11 13  1  0  0  0  0
 12 11  1  0  0  0  0
 13  5  2  0  0  0  0
 14 13  1  1  0  0  0
 14  4  1  0  0  0  0
 15  4  1  0  0  0  0
 15 16  1  0  0  0  0
 16 17  1  0  0  0  0
 18 19  1  0  0  0  0
 18 16  2  0  0  0  0
 20 18  1  0  0  0  0
 21 20  1  0  0  0  0
 22 24  1  0  0  0  0
 22 20  2  0  0  0  0
 23 22  1  0  0  0  0
 24 15  2  0  0  0  0
 25 26  1  0  0  0  0
 27 25  1  0  0  0  0
 28 25  1  0  0  0  0
M  CHG  1   3  -1
M  END
