3
 OpenBabel05122313063D

 50 53  0  0  0  0  0  0  0  0999 V2000
    0.9856   -0.0086    1.0442 P   0  0  0  0  0  0  0  0  0  0  0  0
   -1.8896   -0.3673    0.3305 P   0  0  0  0  0  4  0  0  0  0  0  0
   -1.1320    0.0406   -0.9820 O   0  0  0  0  0  1  0  0  0  0  0  0
   -0.6783   -0.5402    1.7076 C   0  0  0  0  0  0  0  0  0  0  0  0
    2.2132   -0.8111    2.1391 C   0  0  0  0  0  0  0  0  0  0  0  0
    2.7634   -2.0565    1.7710 C   0  0  0  0  0  0  0  0  0  0  0  0
    3.6881   -2.6851    2.6175 C   0  0  0  0  0  0  0  0  0  0  0  0
    4.0653   -2.0804    3.8274 C   0  0  0  0  0  0  0  0  0  0  0  0
    3.5103   -0.8449    4.1987 C   0  0  0  0  0  0  0  0  0  0  0  0
    2.5849   -0.2071    3.3602 C   0  0  0  0  0  0  0  0  0  0  0  0
    1.1249    1.7776    1.4196 C   0  0  0  0  0  0  0  0  0  0  0  0
    2.3961    2.3861    1.3027 C   0  0  0  0  0  0  0  0  0  0  0  0
    2.5353    3.7697    1.4712 C   0  0  0  0  0  0  0  0  0  0  0  0
    1.4103    4.5633    1.7567 C   0  0  0  0  0  0  0  0  0  0  0  0
    0.1493    3.9639    1.8841 C   0  0  0  0  0  0  0  0  0  0  0  0
    0.0040    2.5771    1.7178 C   0  0  0  0  0  0  0  0  0  0  0  0
   -3.0368    0.9818    0.7354 C   0  0  0  0  0  0  0  0  0  0  0  0
   -3.0580    2.1312   -0.0789 C   0  0  0  0  0  0  0  0  0  0  0  0
   -3.9202    3.1906    0.2405 C   0  0  0  0  0  0  0  0  0  0  0  0
   -4.7536    3.1063    1.3673 C   0  0  0  0  0  0  0  0  0  0  0  0
   -4.7364    1.9561    2.1749 C   0  0  0  0  0  0  0  0  0  0  0  0
   -3.8844    0.8889    1.8589 C   0  0  0  0  0  0  0  0  0  0  0  0
   -2.8632   -1.8823    0.1828 C   0  0  0  0  0  0  0  0  0  0  0  0
   -3.3338   -2.2330   -1.0978 C   0  0  0  0  0  0  0  0  0  0  0  0
   -4.1413   -3.3678   -1.2479 C   0  0  0  0  0  0  0  0  0  0  0  0
   -4.4796   -4.1467   -0.1289 C   0  0  0  0  0  0  0  0  0  0  0  0
   -4.0083   -3.7949    1.1461 C   0  0  0  0  0  0  0  0  0  0  0  0
   -3.1982   -2.6619    1.3075 C   0  0  0  0  0  0  0  0  0  0  0  0
   -0.9723    0.0176    2.6176 H   0  0  0  0  0  0  0  0  0  0  0  0
   -0.5617   -1.6173    1.9351 H   0  0  0  0  0  0  0  0  0  0  0  0
    2.4354   -2.5384    0.8384 H   0  0  0  0  0  0  0  0  0  0  0  0
    4.1146   -3.6576    2.3295 H   0  0  0  0  0  0  0  0  0  0  0  0
    4.7936   -2.5755    4.4870 H   0  0  0  0  0  0  0  0  0  0  0  0
    3.8004   -0.3714    5.1485 H   0  0  0  0  0  0  0  0  0  0  0  0
    2.1594    0.7641    3.6538 H   0  0  0  0  0  0  0  0  0  0  0  0
    3.2858    1.7702    1.0980 H   0  0  0  0  0  0  0  0  0  0  0  0
    3.5300    4.2323    1.3864 H   0  0  0  0  0  0  0  0  0  0  0  0
    1.5219    5.6497    1.8884 H   0  0  0  0  0  0  0  0  0  0  0  0
   -0.7359    4.5751    2.1151 H   0  0  0  0  0  0  0  0  0  0  0  0
   -0.9976    2.1369    1.8150 H   0  0  0  0  0  0  0  0  0  0  0  0
   -2.3933    2.1848   -0.9523 H   0  0  0  0  0  0  0  0  0  0  0  0
   -3.9418    4.0877   -0.3961 H   0  0  0  0  0  0  0  0  0  0  0  0
   -5.4278    3.9395    1.6160 H   0  0  0  0  0  0  0  0  0  0  0  0
   -5.3969    1.8869    3.0518 H   0  0  0  0  0  0  0  0  0  0  0  0
   -3.8918   -0.0179    2.4838 H   0  0  0  0  0  0  0  0  0  0  0  0
   -3.0485   -1.6262   -1.9698 H   0  0  0  0  0  0  0  0  0  0  0  0
   -4.5042   -3.6512   -2.2469 H   0  0  0  0  0  0  0  0  0  0  0  0
   -5.1115   -5.0388   -0.2520 H   0  0  0  0  0  0  0  0  0  0  0  0
   -4.2667   -4.4105    2.0203 H   0  0  0  0  0  0  0  0  0  0  0  0
   -2.8206   -2.4035    2.3093 H   0  0  0  0  0  0  0  0  0  0  0  0
  1 11  1  0  0  0  0
  1  4  1  0  0  0  0
  1  5  1  0  0  0  0
  2 17  1  0  0  0  0
  2  4  1  0  0  0  0
  3  2  1  0  0  0  0
  4 30  1  0  0  0  0
  4 29  1  0  0  0  0
  5 10  1  0  0  0  0
  6  5  2  0  0  0  0
  6  7  1  0  0  0  0
  7  8  2  0  0  0  0
  8  9  1  0  0  0  0
  8 33  1  0  0  0  0
  9 34  1  0  0  0  0
 10 35  1  0  0  0  0
 10  9  2  0  0  0  0
 11 16  1  0  0  0  0
 12 11  2  0  0  0  0
 12 13  1  0  0  0  0
 13 14  2  0  0  0  0
 14 15  1  0  0  0  0
 14 38  1  0  0  0  0
 15 39  1  0  0  0  0
 16 40  1  0  0  0  0
 16 15  2  0  0  0  0
 17 22  1  0  0  0  0
 18 19  1  0  0  0  0
 18 17  2  0  0  0  0
 19 20  2  0  0  0  0
 20 43  1  0  0  0  0
 20 21  1  0  0  0  0
 21 44  1  0  0  0  0
 22 21  2  0  0  0  0
 22 45  1  0  0  0  0
 23  2  1  0  0  0  0
 23 28  1  0  0  0  0
 24 23  2  0  0  0  0
 25 24  1  0  0  0  0
 25 26  2  0  0  0  0
 26 27  1  0  0  0  0
 27 28  2  0  0  0  0
 27 49  1  0  0  0  0
 28 50  1  0  0  0  0
 31  6  1  0  0  0  0
 32  7  1  0  0  0  0
 36 12  1  0  0  0  0
 37 13  1  0  0  0  0
 41 18  1  0  0  0  0
 42 19  1  0  0  0  0
 46 24  1  0  0  0  0
 47 25  1  0  0  0  0
 48 26  1  0  0  0  0
M  END
