2
 OpenBabel05122313063D

 20 20  0  0  1  0  0  0  0  0999 V2000
   -3.0609    1.0526   -0.3204 O   0  0  0  0  0  0  0  0  0  0  0  0
   -1.5049    0.7659    1.2573 O   0  0  0  0  0  1  0  0  0  0  0  0
   -5.1101   -0.5287   -0.3947 N   0  0  0  0  0  0  0  0  0  0  0  0
   -2.5938    0.4576    0.7553 C   0  0  2  0  0  3  0  0  0  0  0  0
   -3.3998   -0.7074    1.3271 C   0  0  1  0  0  0  0  0  0  0  0  0
   -4.9068   -0.5579    1.0651 C   0  0  0  0  0  0  0  0  0  0  0  0
   -4.7541   -1.8144   -1.0276 C   0  0  0  0  0  0  0  0  0  0  0  0
   -3.2708   -2.1174   -0.7995 C   0  0  0  0  0  0  0  0  0  0  0  0
   -2.8881   -2.0246    0.6844 C   0  0  0  0  0  0  0  0  0  0  0  0
   -3.1954   -0.7271    2.4150 H   0  0  0  0  0  0  0  0  0  0  0  0
   -5.2948    0.3867    1.4977 H   0  0  0  0  0  0  0  0  0  0  0  0
   -5.4541   -1.4036    1.5472 H   0  0  0  0  0  0  0  0  0  0  0  0
   -3.9424    0.5579   -0.5874 H   0  0  0  0  0  0  0  0  0  0  0  0
   -6.0707   -0.2539   -0.6286 H   0  0  0  0  0  0  0  0  0  0  0  0
   -4.9776   -1.7435   -2.1110 H   0  0  0  0  0  0  0  0  0  0  0  0
   -5.3829   -2.6392   -0.6079 H   0  0  0  0  0  0  0  0  0  0  0  0
   -3.0401   -3.1305   -1.1870 H   0  0  0  0  0  0  0  0  0  0  0  0
   -2.6340   -1.4164   -1.3802 H   0  0  0  0  0  0  0  0  0  0  0  0
   -3.3313   -2.8706    1.2543 H   0  0  0  0  0  0  0  0  0  0  0  0
   -1.7860   -2.0809    0.7862 H   0  0  0  0  0  0  0  0  0  0  0  0
  1  4  1  0  0  0  0
  3  6  1  0  0  0  0
  4  2  1  6  0  0  0
  4  5  1  0  0  0  0
  5 10  1  1  0  0  0
  6  5  1  0  0  0  0
  6 11  1  0  0  0  0
  6 12  1  0  0  0  0
  7  8  1  0  0  0  0
  7 16  1  0  0  0  0
  7  3  1  0  0  0  0
  8  9  1  0  0  0  0
  9 20  1  0  0  0  0
  9 19  1  0  0  0  0
  9  5  1  0  0  0  0
 13  1  1  0  0  0  0
 14  3  1  0  0  0  0
 15  7  1  0  0  0  0
 17  8  1  0  0  0  0
 18  8  1  0  0  0  0
M  END
