2
 OpenBabel05122313063D

  7  6  0  0  0  0  0  0  0  0999 V2000
   -0.3008    0.8532    1.2533 S   0  0  0  0  0  1  0  0  0  0  0  0
    1.2742    1.6664   -1.0154 O   0  5  0  0  0  0  0  0  0  0  0  0
    0.6924    3.8308   -1.1450 O   0  0  0  0  0  0  0  0  0  0  0  0
    0.6540    2.7382   -0.5969 C   0  0  0  0  0  0  0  0  0  0  0  0
   -0.1237    2.5950    0.7291 C   0  0  0  0  0  0  0  0  0  0  0  0
   -1.1175    3.0771    0.6782 H   0  0  0  0  0  0  0  0  0  0  0  0
    0.4484    3.0829    1.5447 H   0  0  0  0  0  0  0  0  0  0  0  0
  2  4  1  0  0  0  0
  3  4  2  0  0  0  0
  4  5  1  0  0  0  0
  5  1  1  0  0  0  0
  5  7  1  0  0  0  0
  6  5  1  0  0  0  0
M  CHG  1   2  -1
M  END
