1
 OpenBabel05122313063D

 17 17  0  0  0  0  0  0  0  0999 V2000
    0.1997   -1.0187   -1.1279 O   0  5  0  0  0  0  0  0  0  0  0  0
   -0.1285   -3.1686   -0.4616 O   0  0  0  0  0  0  0  0  0  0  0  0
    2.7609   -1.0195   -0.3105 N   0  0  0  0  0  0  0  0  0  0  0  0
    0.5515   -2.1674   -0.6705 C   0  0  0  0  0  0  0  0  0  0  0  0
    2.0997   -2.3227   -0.3894 C   0  0  0  0  0  0  0  0  0  0  0  0
    2.2350   -2.8617    0.5632 H   0  0  0  0  0  0  0  0  0  0  0  0
    2.5463   -2.9151   -1.2116 H   0  0  0  0  0  0  0  0  0  0  0  0
    2.7997   -0.2518   -1.4413 C   0  0  0  0  0  3  0  0  0  0  0  0
    2.4909   -0.7483   -2.3684 H   0  0  0  0  0  0  0  0  0  0  0  0
    3.1769    1.0806   -1.3821 C   0  0  0  0  0  0  0  0  0  0  0  0
    3.1731    1.6793   -2.3015 H   0  0  0  0  0  0  0  0  0  0  0  0
    3.4883    1.6531   -0.1357 C   0  0  0  0  0  0  0  0  0  0  0  0
    3.7416    2.7197   -0.0644 H   0  0  0  0  0  0  0  0  0  0  0  0
    3.4504    0.8534    1.0093 C   0  0  0  0  0  0  0  0  0  0  0  0
    3.6614    1.2603    2.0066 H   0  0  0  0  0  0  0  0  0  0  0  0
    3.0589   -0.4816    0.9029 C   0  0  0  0  0  0  0  0  0  0  0  0
    2.9636   -1.1470    1.7673 H   0  0  0  0  0  0  0  0  0  0  0  0
  1  4  1  0  0  0  0
  3 16  1  0  0  0  0
  4  2  2  0  0  0  0
  4  5  1  0  0  0  0
  5  3  1  0  0  0  0
  5  6  1  0  0  0  0
  7  5  1  0  0  0  0
  8 10  1  0  0  0  0
  8  3  1  0  0  0  0
  9  8  1  0  0  0  0
 10 12  2  0  0  0  0
 11 10  1  0  0  0  0
 12 13  1  0  0  0  0
 12 14  1  0  0  0  0
 14 15  1  0  0  0  0
 16 14  2  0  0  0  0
 16 17  1  0  0  0  0
M  CHG  1   1  -1
M  END
