1
 OpenBabel05122313063D

 19 19  0  0  0  0  0  0  0  0999 V2000
    1.8160    0.0841   -0.0870 O   0  5  0  0  0  0  0  0  0  0  0  0
    2.1993   -2.1357    0.0974 O   0  0  0  0  0  0  0  0  0  0  0  0
   10.6328   -1.3535   -0.2290 O   0  0  0  0  0  0  0  0  0  0  0  0
   10.9293   -0.4270   -0.3010 H   0  0  0  0  0  0  0  0  0  0  0  0
    2.6046   -0.9316   -0.0209 C   0  0  0  0  0  0  0  0  0  0  0  0
    4.0563   -0.6380   -0.0905 C   0  0  0  0  0  0  0  0  0  0  0  0
    4.3261    0.4257   -0.1819 H   0  0  0  0  0  0  0  0  0  0  0  0
    4.9825   -1.6303   -0.0403 C   0  0  0  0  0  0  0  0  0  0  0  0
    4.5780   -2.6540    0.0517 H   0  0  0  0  0  0  0  0  0  0  0  0
    6.4350   -1.5057   -0.0929 C   0  0  0  0  0  0  0  0  0  0  0  0
    7.1049   -0.2615   -0.1992 C   0  0  0  0  0  0  0  0  0  0  0  0
    6.5216    0.6699   -0.2450 H   0  0  0  0  0  0  0  0  0  0  0  0
    8.4976   -0.1905   -0.2459 C   0  0  0  0  0  0  0  0  0  0  0  0
    8.9984    0.7888   -0.3279 H   0  0  0  0  0  0  0  0  0  0  0  0
    9.2745   -1.3688   -0.1875 C   0  0  0  0  0  0  0  0  0  0  0  0
    8.6296   -2.6174   -0.0813 C   0  0  0  0  0  0  0  0  0  0  0  0
    9.2439   -3.5280   -0.0362 H   0  0  0  0  0  0  0  0  0  0  0  0
    7.2358   -2.6743   -0.0353 C   0  0  0  0  0  0  0  0  0  0  0  0
    6.7379   -3.6530    0.0480 H   0  0  0  0  0  0  0  0  0  0  0  0
  1  5  1  0  0  0  0
  3 15  1  0  0  0  0
  4  3  1  0  0  0  0
  5  2  2  0  0  0  0
  6  8  2  0  0  0  0
  6  5  1  0  0  0  0
  7  6  1  0  0  0  0
  8  9  1  0  0  0  0
 10  8  1  0  0  0  0
 10 18  1  0  0  0  0
 11 10  2  0  0  0  0
 12 11  1  0  0  0  0
 13 11  1  0  0  0  0
 13 15  2  0  0  0  0
 14 13  1  0  0  0  0
 15 16  1  0  0  0  0
 16 17  1  0  0  0  0
 16 18  2  0  0  0  0
 18 19  1  0  0  0  0
M  CHG  1   1  -1
M  END
