2
 OpenBabel05122313063D

 22 22  0  0  1  0  0  0  0  0999 V2000
   -1.1976   -0.7378   -0.1494 O   0  0  0  0  0  0  0  0  0  0  0  0
    0.2848    1.4716    0.8329 O   0  0  0  0  0  1  0  0  0  0  0  0
   -1.6257    2.5228    0.3123 O   0  0  0  0  0  0  0  0  0  0  0  0
   -1.7802   -2.0455    0.1068 C   0  0  0  0  0  0  0  0  0  0  0  0
   -3.2704   -1.7791    0.2674 C   0  0  0  0  0  0  0  0  0  0  0  0
   -3.4818   -0.6089   -0.7014 C   0  0  0  0  0  0  0  0  0  0  0  0
   -2.2150    0.2358   -0.4933 C   0  0  1  0  0  0  0  0  0  0  0  0
   -2.3463    1.2974    0.6131 C   0  0  0  0  0  0  0  0  0  0  0  0
   -0.3016    2.4868    0.4471 C   0  0  2  0  0  3  0  0  0  0  0  0
    0.3999    3.7406    0.0475 C   0  0  0  0  0  0  0  0  0  0  0  0
   -1.2793   -2.4549    1.0049 H   0  0  0  0  0  0  0  0  0  0  0  0
   -1.5519   -2.6978   -0.7627 H   0  0  0  0  0  0  0  0  0  0  0  0
   -3.5056   -1.4779    1.3098 H   0  0  0  0  0  0  0  0  0  0  0  0
   -3.8848   -2.6670    0.0233 H   0  0  0  0  0  0  0  0  0  0  0  0
   -4.4124   -0.0364   -0.5236 H   0  0  0  0  0  0  0  0  0  0  0  0
   -3.5066   -0.9766   -1.7471 H   0  0  0  0  0  0  0  0  0  0  0  0
   -1.8807    0.7380   -1.4256 H   0  0  0  0  0  0  0  0  0  0  0  0
   -3.3943    1.6352    0.7096 H   0  0  0  0  0  0  0  0  0  0  0  0
   -1.9833    0.8879    1.5773 H   0  0  0  0  0  0  0  0  0  0  0  0
    1.2510    3.9214    0.7291 H   0  0  0  0  0  0  0  0  0  0  0  0
    0.8227    3.5308   -0.9594 H   0  0  0  0  0  0  0  0  0  0  0  0
   -0.2789    4.6091   -0.0034 H   0  0  0  0  0  0  0  0  0  0  0  0
  1  4  1  0  0  0  0
  3  9  1  0  0  0  0
  3  8  1  0  0  0  0
  4  5  1  0  0  0  0
  4 11  1  0  0  0  0
  5 13  1  0  0  0  0
  6 15  1  0  0  0  0
  6  7  1  0  0  0  0
  6  5  1  0  0  0  0
  7 17  1  6  0  0  0
  7  1  1  0  0  0  0
  7  8  1  0  0  0  0
  8 18  1  0  0  0  0
  8 19  1  0  0  0  0
  9  2  1  6  0  0  0
 10  9  1  0  0  0  0
 10 20  1  0  0  0  0
 12  4  1  0  0  0  0
 14  5  1  0  0  0  0
 16  6  1  0  0  0  0
 21 10  1  0  0  0  0
 22 10  1  0  0  0  0
M  END
