1
 OpenBabel05122313063D

 14 14  0  0  0  0  0  0  0  0999 V2000
    0.8270   -0.4493    1.3706 O   0  5  0  0  0  0  0  0  0  0  0  0
    1.0428    0.5679   -1.1191 O   0  0  0  0  0  0  0  0  0  0  0  0
    4.4265   -0.3602    0.9476 O   0  0  0  0  0  0  0  0  0  0  0  0
    2.0145   -0.2832    0.8584 C   0  0  0  0  0  0  0  0  0  0  0  0
    2.1196    0.2872   -0.4900 C   0  0  0  0  0  0  0  0  0  0  0  0
    3.2041   -0.5786    1.5129 C   0  0  0  0  0  0  0  0  0  0  0  0
    3.2737   -1.0126    2.5175 H   0  0  0  0  0  0  0  0  0  0  0  0
    4.5470    0.1703   -0.2807 C   0  0  0  0  0  0  0  0  0  0  0  0
    3.4289    0.5164   -1.0132 C   0  0  0  0  0  0  0  0  0  0  0  0
    3.5394    0.9470   -2.0177 H   0  0  0  0  0  0  0  0  0  0  0  0
    5.9683    0.3118   -0.7197 C   0  0  0  0  0  0  0  0  0  0  0  0
    6.5433    0.9312   -0.0009 H   0  0  0  0  0  0  0  0  0  0  0  0
    6.0220    0.7810   -1.7182 H   0  0  0  0  0  0  0  0  0  0  0  0
    6.4648   -0.6798   -0.7669 H   0  0  0  0  0  0  0  0  0  0  0  0
  2  5  2  0  0  0  0
  3  6  1  0  0  0  0
  4  1  1  0  0  0  0
  4  6  2  0  0  0  0
  5  4  1  0  0  0  0
  6  7  1  0  0  0  0
  8  3  1  0  0  0  0
  9  5  1  0  0  0  0
  9  8  2  0  0  0  0
 10  9  1  0  0  0  0
 11  8  1  0  0  0  0
 11 12  1  0  0  0  0
 13 11  1  0  0  0  0
 14 11  1  0  0  0  0
M  CHG  1   1  -1
M  END
