6
 OpenBabel05122313063D

 14 14  0  0  0  0  0  0  0  0999 V2000
    2.1227    2.1462    0.4694 F   0  0  0  0  0  0  0  0  0  0  0  0
    4.5030    3.0077   -0.4546 F   0  0  0  0  0  0  0  0  0  0  0  0
    6.6074    1.2781   -0.6931 F   0  0  0  0  0  0  0  0  0  0  0  0
    6.3069   -1.3545    0.0044 F   0  0  0  0  0  0  0  0  0  0  0  0
    3.9132   -2.2435    0.9441 F   0  0  0  0  0  0  0  0  0  0  0  0
    0.5962    0.0619    1.5834 O   0  0  0  0  0  1  0  0  0  0  0  0
    1.6883   -0.6538    1.3066 C   0  0  0  0  0  3  0  0  0  0  0  0
    2.9436   -0.0776    0.7627 C   0  0  0  0  0  0  0  0  0  0  0  0
    3.1279    1.2689    0.3853 C   0  0  0  0  0  0  0  0  0  0  0  0
    4.3583    1.7319   -0.1080 C   0  0  0  0  0  0  0  0  0  0  0  0
    5.4434    0.8444   -0.2292 C   0  0  0  0  0  0  0  0  0  0  0  0
    5.2888   -0.5085    0.1300 C   0  0  0  0  0  0  0  0  0  0  0  0
    4.0514   -0.9429    0.6208 C   0  0  0  0  0  0  0  0  0  0  0  0
    1.8791   -1.5293    1.9619 H   0  0  0  0  0  0  0  0  0  0  0  0
  2 10  1  0  0  0  0
  3 11  1  0  0  0  0
  4 12  1  0  0  0  0
  7  6  1  0  0  0  0
  7 14  1  0  0  0  0
  8  7  1  0  0  0  0
  9  1  1  0  0  0  0
  9  8  2  0  0  0  0
 10  9  1  0  0  0  0
 11 10  2  0  0  0  0
 11 12  1  0  0  0  0
 12 13  2  0  0  0  0
 13  8  1  0  0  0  0
 13  5  1  0  0  0  0
M  END
