1
 OpenBabel05122313063D

 46 46  0  0  1  0  0  0  0  0999 V2000
    0.2437   -1.0920    0.8325 O   0  0  0  0  0  1  0  0  0  0  0  0
    1.8843   -0.6699   -0.6582 N   0  0  0  0  0  0  0  0  0  0  0  0
    2.5088   -1.0619   -1.3672 H   0  0  0  0  0  0  0  0  0  0  0  0
    1.8069    0.7596   -0.5314 C   0  0  0  0  0  0  0  0  0  0  0  0
    2.4367    1.3912    0.5686 C   0  0  0  0  0  0  0  0  0  0  0  0
    2.3461    2.7949    0.6542 C   0  0  0  0  0  0  0  0  0  0  0  0
    2.8216    3.3149    1.4992 H   0  0  0  0  0  0  0  0  0  0  0  0
    1.6600    3.5341   -0.3162 C   0  0  0  0  0  0  0  0  0  0  0  0
    1.6059    4.6305   -0.2334 H   0  0  0  0  0  0  0  0  0  0  0  0
    1.0318    2.8830   -1.3868 C   0  0  0  0  0  0  0  0  0  0  0  0
    0.4780    3.4722   -2.1312 H   0  0  0  0  0  0  0  0  0  0  0  0
    1.0836    1.4833   -1.5144 C   0  0  0  0  0  0  0  0  0  0  0  0
    3.1469    0.6005    1.6595 C   0  0  0  0  0  0  0  0  0  0  0  0
    3.2754   -0.4361    1.2862 H   0  0  0  0  0  0  0  0  0  0  0  0
    4.5487    1.1512    1.9648 C   0  0  0  0  0  0  0  0  0  0  0  0
    5.1730    1.2111    1.0506 H   0  0  0  0  0  0  0  0  0  0  0  0
    5.0682    0.4981    2.6950 H   0  0  0  0  0  0  0  0  0  0  0  0
    4.5047    2.1665    2.4100 H   0  0  0  0  0  0  0  0  0  0  0  0
    2.2775    0.5300    2.9300 C   0  0  0  0  0  0  0  0  0  0  0  0
    2.1165    1.5434    3.3536 H   0  0  0  0  0  0  0  0  0  0  0  0
    2.7740   -0.0847    3.7088 H   0  0  0  0  0  0  0  0  0  0  0  0
    1.2884    0.0829    2.7126 H   0  0  0  0  0  0  0  0  0  0  0  0
    0.3948    0.7513   -2.6568 C   0  0  0  0  0  0  0  0  0  0  0  0
   -0.0055   -0.1971   -2.2397 H   0  0  0  0  0  0  0  0  0  0  0  0
    1.3972    0.3993   -3.7720 C   0  0  0  0  0  0  0  0  0  0  0  0
    1.8100    1.3181   -4.2379 H   0  0  0  0  0  0  0  0  0  0  0  0
    0.9038   -0.1982   -4.5652 H   0  0  0  0  0  0  0  0  0  0  0  0
    2.2589   -0.1922   -3.3985 H   0  0  0  0  0  0  0  0  0  0  0  0
   -0.8146    1.4994   -3.2257 C   0  0  0  0  0  0  0  0  0  0  0  0
   -1.5043    1.7946   -2.4124 H   0  0  0  0  0  0  0  0  0  0  0  0
   -1.3729    0.8358   -3.9147 H   0  0  0  0  0  0  0  0  0  0  0  0
   -0.5242    2.4080   -3.7938 H   0  0  0  0  0  0  0  0  0  0  0  0
    1.0872   -1.5293    0.0149 C   0  0  1  0  0  3  0  0  0  0  0  0
    1.3230   -3.0336   -0.2089 C   0  0  0  0  0  0  0  0  0  0  0  0
    1.3556   -3.3541   -1.7178 C   0  0  0  0  0  0  0  0  0  0  0  0
    0.4083   -3.0394   -2.1990 H   0  0  0  0  0  0  0  0  0  0  0  0
    1.4772   -4.4465   -1.8616 H   0  0  0  0  0  0  0  0  0  0  0  0
    2.2045   -2.8675   -2.2440 H   0  0  0  0  0  0  0  0  0  0  0  0
    0.1901   -3.8244    0.4643 C   0  0  0  0  0  0  0  0  0  0  0  0
    0.0860   -3.5523    1.5321 H   0  0  0  0  0  0  0  0  0  0  0  0
    0.4024   -4.9094    0.3937 H   0  0  0  0  0  0  0  0  0  0  0  0
   -0.7762   -3.6275   -0.0410 H   0  0  0  0  0  0  0  0  0  0  0  0
    2.6757   -3.3873    0.4543 C   0  0  0  0  0  0  0  0  0  0  0  0
    3.5256   -2.8564   -0.0214 H   0  0  0  0  0  0  0  0  0  0  0  0
    2.8625   -4.4761    0.3614 H   0  0  0  0  0  0  0  0  0  0  0  0
    2.6704   -3.1325    1.5333 H   0  0  0  0  0  0  0  0  0  0  0  0
  2  4  1  0  0  0  0
  2 33  1  0  0  0  0
  3  2  1  0  0  0  0
  4  5  1  0  0  0  0
  5  6  2  0  0  0  0
  5 13  1  0  0  0  0
  6  7  1  0  0  0  0
  8  9  1  0  0  0  0
  8  6  1  0  0  0  0
 10  8  2  0  0  0  0
 11 10  1  0  0  0  0
 12 10  1  0  0  0  0
 12  4  2  0  0  0  0
 13 15  1  0  0  0  0
 13 19  1  0  0  0  0
 14 13  1  0  0  0  0
 15 18  1  0  0  0  0
 15 17  1  0  0  0  0
 16 15  1  0  0  0  0
 19 20  1  0  0  0  0
 19 21  1  0  0  0  0
 22 19  1  0  0  0  0
 23 24  1  0  0  0  0
 23 12  1  0  0  0  0
 25 28  1  0  0  0  0
 25 23  1  0  0  0  0
 26 25  1  0  0  0  0
 27 25  1  0  0  0  0
 29 23  1  0  0  0  0
 29 30  1  0  0  0  0
 31 29  1  0  0  0  0
 32 29  1  0  0  0  0
 33  1  1  1  0  0  0
 34 33  1  0  0  0  0
 34 43  1  0  0  0  0
 34 39  1  0  0  0  0
 35 34  1  0  0  0  0
 36 35  1  0  0  0  0
 37 35  1  0  0  0  0
 38 35  1  0  0  0  0
 39 40  1  0  0  0  0
 41 39  1  0  0  0  0
 42 39  1  0  0  0  0
 43 46  1  0  0  0  0
 44 43  1  0  0  0  0
 45 43  1  0  0  0  0
M  END
