1
 OpenBabel05122313063D

 31 32  0  0  0  0  0  0  0  0999 V2000
   -0.2256   -0.3939    1.0231 O   0  5  0  0  0  0  0  0  0  0  0  0
    1.9900    0.2004    0.6323 N   0  0  0  0  0  0  0  0  0  0  0  0
    1.7426    1.5679    0.3607 C   0  0  0  0  0  0  0  0  0  0  0  0
    1.9467    2.1111   -0.9289 C   0  0  0  0  0  0  0  0  0  0  0  0
    1.6572    3.4582   -1.1811 C   0  0  0  0  0  0  0  0  0  0  0  0
    1.1491    4.2852   -0.1635 C   0  0  0  0  0  0  0  0  0  0  0  0
    0.9413    3.7466    1.1173 C   0  0  0  0  0  0  0  0  0  0  0  0
    1.2367    2.4028    1.3812 C   0  0  0  0  0  0  0  0  0  0  0  0
    3.1295   -0.4665    0.1263 C   0  0  0  0  0  0  0  0  0  0  0  0
    3.0901   -1.8526   -0.1575 C   0  0  0  0  0  0  0  0  0  0  0  0
    4.2188   -2.5039   -0.6681 C   0  0  0  0  0  0  0  0  0  0  0  0
    5.4077   -1.7970   -0.9145 C   0  0  0  0  0  0  0  0  0  0  0  0
    5.4531   -0.4236   -0.6277 C   0  0  0  0  0  0  0  0  0  0  0  0
    4.3338    0.2380   -0.1059 C   0  0  0  0  0  0  0  0  0  0  0  0
    1.0396   -0.4874    1.4500 C   0  0  0  0  0  0  0  0  0  0  0  0
    1.4042   -1.1805    2.5605 C   0  0  0  0  0  0  0  0  0  0  0  0
    0.4682   -2.0258    3.3651 C   0  0  0  0  0  0  0  0  0  0  0  0
    2.3408    1.4692   -1.7303 H   0  0  0  0  0  0  0  0  0  0  0  0
    1.8224    3.8653   -2.1906 H   0  0  0  0  0  0  0  0  0  0  0  0
    0.9187    5.3412   -0.3676 H   0  0  0  0  0  0  0  0  0  0  0  0
    0.5484    4.3829    1.9251 H   0  0  0  0  0  0  0  0  0  0  0  0
    1.0859    1.9772    2.3844 H   0  0  0  0  0  0  0  0  0  0  0  0
    2.1683   -2.4168    0.0425 H   0  0  0  0  0  0  0  0  0  0  0  0
    4.1634   -3.5820   -0.8835 H   0  0  0  0  0  0  0  0  0  0  0  0
    6.2907   -2.3129   -1.3192 H   0  0  0  0  0  0  0  0  0  0  0  0
    6.3804    0.1451   -0.7975 H   0  0  0  0  0  0  0  0  0  0  0  0
    4.3875    1.3098    0.1316 H   0  0  0  0  0  0  0  0  0  0  0  0
    2.4688   -1.1413    2.8379 H   0  0  0  0  0  0  0  0  0  0  0  0
   -0.5465   -2.0400    2.9213 H   0  0  0  0  0  0  0  0  0  0  0  0
    0.3812   -1.6604    4.4120 H   0  0  0  0  0  0  0  0  0  0  0  0
    0.8270   -3.0764    3.4350 H   0  0  0  0  0  0  0  0  0  0  0  0
  1 15  1  0  0  0  0
  2 15  1  0  0  0  0
  3  2  1  0  0  0  0
  3  8  1  0  0  0  0
  4  3  2  0  0  0  0
  5  4  1  0  0  0  0
  5  6  2  0  0  0  0
  6  7  1  0  0  0  0
  7  8  2  0  0  0  0
  7 21  1  0  0  0  0
  8 22  1  0  0  0  0
  9  2  1  0  0  0  0
 10 23  1  0  0  0  0
 10  9  2  0  0  0  0
 11 10  1  0  0  0  0
 12 11  2  0  0  0  0
 12 13  1  0  0  0  0
 13 14  2  0  0  0  0
 14  9  1  0  0  0  0
 14 27  1  0  0  0  0
 15 16  2  0  0  0  0
 16 28  1  0  0  0  0
 16 17  1  0  0  0  0
 17 31  1  0  0  0  0
 17 30  1  0  0  0  0
 18  4  1  0  0  0  0
 19  5  1  0  0  0  0
 20  6  1  0  0  0  0
 24 11  1  0  0  0  0
 25 12  1  0  0  0  0
 26 13  1  0  0  0  0
 29 17  1  0  0  0  0
M  CHG  1   1  -1
M  END
