1
 OpenBabel05122313063D

 43 46  0  0  1  0  0  0  0  0999 V2000
   -0.1548    0.9814   -0.3820 O   0  0  0  0  0  1  0  0  0  0  0  0
   -0.4449   -1.4423    0.3687 N   0  0  1  0  0  0  0  0  0  0  0  0
    4.5784    2.1850    0.7602 N   0  0  0  0  0  0  0  0  0  0  0  0
    0.9637    0.2721   -0.8077 C   0  0  1  0  0  0  0  0  0  0  0  0
    3.3683    2.4611    1.2201 C   0  0  0  0  0  0  0  0  0  0  0  0
    2.1714    1.8752    0.7288 C   0  0  0  0  0  0  0  0  0  0  0  0
    2.2284    0.9446   -0.3003 C   0  0  0  0  0  0  0  0  0  0  0  0
    3.7156   -0.2402   -1.9584 C   0  0  0  0  0  0  0  0  0  0  0  0
    4.9906   -0.4991   -2.4418 C   0  0  0  0  0  0  0  0  0  0  0  0
    6.1244    0.1214   -1.8519 C   0  0  0  0  0  0  0  0  0  0  0  0
    5.9643    1.0029   -0.7943 C   0  0  0  0  0  0  0  0  0  0  0  0
    4.6681    1.2963   -0.2757 C   0  0  0  0  0  0  0  0  0  0  0  0
    3.5159    0.6503   -0.8616 C   0  0  0  0  0  0  0  0  0  0  0  0
    0.8423   -1.2541   -0.4001 C   0  0  1  0  0  0  0  0  0  0  0  0
    1.9970   -1.9327    0.3692 C   0  0  0  0  0  0  0  0  0  0  0  0
    1.3956   -2.9786    1.3206 C   0  0  2  0  0  0  0  0  0  0  0  0
    0.3267   -3.8027    0.5806 C   0  0  0  0  0  0  0  0  0  0  0  0
   -0.8550   -2.8669    0.2168 C   0  0  0  0  0  0  0  0  0  0  0  0
    0.6992   -2.2080    2.4762 C   0  0  2  0  0  0  0  0  0  0  0  0
   -0.2129   -1.1465    1.8134 C   0  0  0  0  0  0  0  0  0  0  0  0
    1.6863   -1.6772    3.4846 C   0  0  0  0  0  0  0  0  0  0  0  0
    2.0176   -0.3977    3.7296 C   0  0  0  0  0  0  0  0  0  0  0  0
    1.0108    0.2628   -1.9234 H   0  0  0  0  0  0  0  0  0  0  0  0
    3.3115    3.1940    2.0472 H   0  0  0  0  0  0  0  0  0  0  0  0
    1.1897    2.1500    1.1411 H   0  0  0  0  0  0  0  0  0  0  0  0
    2.8466   -0.7179   -2.4346 H   0  0  0  0  0  0  0  0  0  0  0  0
    5.1243   -1.1841   -3.2929 H   0  0  0  0  0  0  0  0  0  0  0  0
    7.1299   -0.0940   -2.2446 H   0  0  0  0  0  0  0  0  0  0  0  0
    6.8171    1.5103   -0.3204 H   0  0  0  0  0  0  0  0  0  0  0  0
    0.6582   -1.7969   -1.3446 H   0  0  0  0  0  0  0  0  0  0  0  0
    2.6982   -2.4012   -0.3484 H   0  0  0  0  0  0  0  0  0  0  0  0
    2.5877   -1.2021    0.9571 H   0  0  0  0  0  0  0  0  0  0  0  0
    2.1872   -3.6403    1.7270 H   0  0  0  0  0  0  0  0  0  0  0  0
   -0.0263   -4.6409    1.2152 H   0  0  0  0  0  0  0  0  0  0  0  0
    0.7669   -4.2515   -0.3334 H   0  0  0  0  0  0  0  0  0  0  0  0
   -1.1973   -2.9933   -0.8283 H   0  0  0  0  0  0  0  0  0  0  0  0
   -1.7251   -3.0254    0.8848 H   0  0  0  0  0  0  0  0  0  0  0  0
    0.0604   -2.9456    3.0141 H   0  0  0  0  0  0  0  0  0  0  0  0
   -1.1940   -1.1105    2.3195 H   0  0  0  0  0  0  0  0  0  0  0  0
    0.2177   -0.1297    1.8468 H   0  0  0  0  0  0  0  0  0  0  0  0
    2.2026   -2.4684    4.0594 H   0  0  0  0  0  0  0  0  0  0  0  0
    1.5637    0.4489    3.1918 H   0  0  0  0  0  0  0  0  0  0  0  0
    2.7820   -0.1465    4.4805 H   0  0  0  0  0  0  0  0  0  0  0  0
  2 18  1  1  0  0  0
  2 20  1  0  0  0  0
  3  5  1  0  0  0  0
  4 23  1  6  0  0  0
  4 14  1  0  0  0  0
  4  1  1  0  0  0  0
  4  7  1  0  0  0  0
  5 24  1  0  0  0  0
  6 25  1  0  0  0  0
  6  5  2  0  0  0  0
  7  6  1  0  0  0  0
  8 13  1  0  0  0  0
  9  8  2  0  0  0  0
  9 10  1  0  0  0  0
 10 11  2  0  0  0  0
 11 29  1  0  0  0  0
 11 12  1  0  0  0  0
 12  3  2  0  0  0  0
 13  7  2  0  0  0  0
 13 12  1  0  0  0  0
 14 30  1  6  0  0  0
 14  2  1  0  0  0  0
 14 15  1  0  0  0  0
 15 32  1  0  0  0  0
 15 16  1  0  0  0  0
 16 33  1  1  0  0  0
 16 19  1  0  0  0  0
 17 34  1  0  0  0  0
 17 16  1  0  0  0  0
 18 17  1  0  0  0  0
 18 37  1  0  0  0  0
 19 38  1  1  0  0  0
 19 21  1  0  0  0  0
 20 40  1  0  0  0  0
 20 39  1  0  0  0  0
 20 19  1  0  0  0  0
 21 22  2  0  0  0  0
 21 41  1  0  0  0  0
 22 43  1  0  0  0  0
 26  8  1  0  0  0  0
 27  9  1  0  0  0  0
 28 10  1  0  0  0  0
 31 15  1  0  0  0  0
 35 17  1  0  0  0  0
 36 18  1  0  0  0  0
 42 22  1  0  0  0  0
M  END
